{
   "completed_at" : "20191127T224008Z",
   "completed_status" : "Success",
   "current_step" : 5,
   "eplusout_err" : "Program Version,EnergyPlus, Version 9.1.0-08d2e308bb, YMD=2019.11.27 16:39,\n   ************* Beginning Zone Sizing Calculations\n   ** Warning ** ProcessScheduleInput: Schedule:Day:Interval=\"ECONOMIZER MAX OA FRACTION 70 PCT DEFAULT\", Blank Schedule Type Limits Name input -- will not be validated.\n   ** Warning ** ProcessScheduleInput: Schedule:Day:Interval=\"OFFICEMEDIUM VAV OPERATION DEFAULT\", Blank Schedule Type Limits Name input -- will not be validated.\n   ** Warning ** ProcessScheduleInput: Schedule:Day:Interval=\"OFFICEMEDIUM VAV OPERATION SAT|SUN|WNTRDSN DAY\", Blank Schedule Type Limits Name input -- will not be validated.\n   ** Warning ** ProcessScheduleInput: Schedule:Day:Interval=\"OFFICEMEDIUM VAV OPERATION SUMMER DESIGN DAY\", Blank Schedule Type Limits Name input -- will not be validated.\n   ** Warning ** ProcessScheduleInput: Schedule:Day:Interval=\"OFFICEMEDIUM VAV OPERATION WINTER DESIGN DAY\", Blank Schedule Type Limits Name input -- will not be validated.\n   ** Warning ** ProcessScheduleInput: Schedule:Year=\"OFFICEMEDIUM VAV OPERATION\", Blank Schedule Type Limits Name input -- will not be validated.\n   ** Warning ** ProcessScheduleInput: Schedule:Constant=\"ALWAYS OFF DISCRETE\", Blank Schedule Type Limits Name input -- will not be validated.\n   ** Warning ** ProcessScheduleInput: Schedule:Constant=\"ALWAYS ON CONTINUOUS\", Blank Schedule Type Limits Name input -- will not be validated.\n   ** Warning ** CheckUsedConstructions: There are 9 nominally unused constructions in input.\n   **   ~~~   ** For explicit details on each unused construction, use Output:Diagnostics,DisplayExtraWarnings;\n   ** Warning ** GetSimpleAirModelInputs: ZoneInfiltration:DesignFlowRate=\"CORE_BOTTOM ZN OFFICE WHOLEBUILDING - MD OFFICE INFILTRATION\", Design Flow Rate Calculation Method specifies Flow per Exterior Surface Area, but Exterior Surface Area = 0.  0 Infiltration will result.\n   ** Warning ** GetSimpleAirModelInputs: ZoneInfiltration:DesignFlowRate=\"CORE_MID ZN OFFICE WHOLEBUILDING - MD OFFICE INFILTRATION\", Design Flow Rate Calculation Method specifies Flow per Exterior Surface Area, but Exterior Surface Area = 0.  0 Infiltration will result.\n   ** Warning ** GetSimpleAirModelInputs: ZoneInfiltration:DesignFlowRate=\"CORE_TOP ZN OFFICE WHOLEBUILDING - MD OFFICE INFILTRATION\", Design Flow Rate Calculation Method specifies Flow per Exterior Surface Area, but Exterior Surface Area = 0.  0 Infiltration will result.\n   ************* Beginning System Sizing Calculations\n   ** Warning ** Since Zone Minimum Air Flow Input Method = CONSTANT, input for Fixed Minimum Air Flow Rate will be ignored.\n   **   ~~~   ** Occurs in AirTerminal:SingleDuct:VAV:Reheat = CORE_BOTTOM ZN VAV TERMINAL\n   ** Warning ** Since Damper Heating Action = NORMAL, input for Maximum Flow Fraction During Reheat will be ignored.\n   **   ~~~   ** Occurs in AirTerminal:SingleDuct:VAV:Reheat = CORE_BOTTOM ZN VAV TERMINAL\n   ** Warning ** Since Zone Minimum Air Flow Input Method = CONSTANT, input for Fixed Minimum Air Flow Rate will be ignored.\n   **   ~~~   ** Occurs in AirTerminal:SingleDuct:VAV:Reheat = CORE_MID ZN VAV TERMINAL\n   ** Warning ** Since Damper Heating Action = NORMAL, input for Maximum Flow Fraction During Reheat will be ignored.\n   **   ~~~   ** Occurs in AirTerminal:SingleDuct:VAV:Reheat = CORE_MID ZN VAV TERMINAL\n   ** Warning ** Since Zone Minimum Air Flow Input Method = CONSTANT, input for Fixed Minimum Air Flow Rate will be ignored.\n   **   ~~~   ** Occurs in AirTerminal:SingleDuct:VAV:Reheat = CORE_TOP ZN VAV TERMINAL\n   ** Warning ** Since Damper Heating Action = NORMAL, input for Maximum Flow Fraction During Reheat will be ignored.\n   **   ~~~   ** Occurs in AirTerminal:SingleDuct:VAV:Reheat = CORE_TOP ZN VAV TERMINAL\n   ** Warning ** Since Zone Minimum Air Flow Input Method = CONSTANT, input for Fixed Minimum Air Flow Rate will be ignored.\n   **   ~~~   ** Occurs in AirTerminal:SingleDuct:VAV:Reheat = PERIMETER_BOT_ZN_1 ZN VAV TERMINAL\n   ** Warning ** Since Damper Heating Action = NORMAL, input for Maximum Flow Fraction During Reheat will be ignored.\n   **   ~~~   ** Occurs in AirTerminal:SingleDuct:VAV:Reheat = PERIMETER_BOT_ZN_1 ZN VAV TERMINAL\n   ** Warning ** Since Zone Minimum Air Flow Input Method = CONSTANT, input for Fixed Minimum Air Flow Rate will be ignored.\n   **   ~~~   ** Occurs in AirTerminal:SingleDuct:VAV:Reheat = PERIMETER_BOT_ZN_2 ZN VAV TERMINAL\n   ** Warning ** Since Damper Heating Action = NORMAL, input for Maximum Flow Fraction During Reheat will be ignored.\n   **   ~~~   ** Occurs in AirTerminal:SingleDuct:VAV:Reheat = PERIMETER_BOT_ZN_2 ZN VAV TERMINAL\n   ** Warning ** Since Zone Minimum Air Flow Input Method = CONSTANT, input for Fixed Minimum Air Flow Rate will be ignored.\n   **   ~~~   ** Occurs in AirTerminal:SingleDuct:VAV:Reheat = PERIMETER_BOT_ZN_3 ZN VAV TERMINAL\n   ** Warning ** Since Damper Heating Action = NORMAL, input for Maximum Flow Fraction During Reheat will be ignored.\n   **   ~~~   ** Occurs in AirTerminal:SingleDuct:VAV:Reheat = PERIMETER_BOT_ZN_3 ZN VAV TERMINAL\n   ** Warning ** Since Zone Minimum Air Flow Input Method = CONSTANT, input for Fixed Minimum Air Flow Rate will be ignored.\n   **   ~~~   ** Occurs in AirTerminal:SingleDuct:VAV:Reheat = PERIMETER_BOT_ZN_4 ZN VAV TERMINAL\n   ** Warning ** Since Damper Heating Action = NORMAL, input for Maximum Flow Fraction During Reheat will be ignored.\n   **   ~~~   ** Occurs in AirTerminal:SingleDuct:VAV:Reheat = PERIMETER_BOT_ZN_4 ZN VAV TERMINAL\n   ** Warning ** Since Zone Minimum Air Flow Input Method = CONSTANT, input for Fixed Minimum Air Flow Rate will be ignored.\n   **   ~~~   ** Occurs in AirTerminal:SingleDuct:VAV:Reheat = PERIMETER_MID_ZN_1 ZN VAV TERMINAL\n   ** Warning ** Since Damper Heating Action = NORMAL, input for Maximum Flow Fraction During Reheat will be ignored.\n   **   ~~~   ** Occurs in AirTerminal:SingleDuct:VAV:Reheat = PERIMETER_MID_ZN_1 ZN VAV TERMINAL\n   ** Warning ** Since Zone Minimum Air Flow Input Method = CONSTANT, input for Fixed Minimum Air Flow Rate will be ignored.\n   **   ~~~   ** Occurs in AirTerminal:SingleDuct:VAV:Reheat = PERIMETER_MID_ZN_2 ZN VAV TERMINAL\n   ** Warning ** Since Damper Heating Action = NORMAL, input for Maximum Flow Fraction During Reheat will be ignored.\n   **   ~~~   ** Occurs in AirTerminal:SingleDuct:VAV:Reheat = PERIMETER_MID_ZN_2 ZN VAV TERMINAL\n   ** Warning ** Since Zone Minimum Air Flow Input Method = CONSTANT, input for Fixed Minimum Air Flow Rate will be ignored.\n   **   ~~~   ** Occurs in AirTerminal:SingleDuct:VAV:Reheat = PERIMETER_MID_ZN_3 ZN VAV TERMINAL\n   ** Warning ** Since Damper Heating Action = NORMAL, input for Maximum Flow Fraction During Reheat will be ignored.\n   **   ~~~   ** Occurs in AirTerminal:SingleDuct:VAV:Reheat = PERIMETER_MID_ZN_3 ZN VAV TERMINAL\n   ** Warning ** Since Zone Minimum Air Flow Input Method = CONSTANT, input for Fixed Minimum Air Flow Rate will be ignored.\n   **   ~~~   ** Occurs in AirTerminal:SingleDuct:VAV:Reheat = PERIMETER_MID_ZN_4 ZN VAV TERMINAL\n   ** Warning ** Since Damper Heating Action = NORMAL, input for Maximum Flow Fraction During Reheat will be ignored.\n   **   ~~~   ** Occurs in AirTerminal:SingleDuct:VAV:Reheat = PERIMETER_MID_ZN_4 ZN VAV TERMINAL\n   ** Warning ** Since Zone Minimum Air Flow Input Method = CONSTANT, input for Fixed Minimum Air Flow Rate will be ignored.\n   **   ~~~   ** Occurs in AirTerminal:SingleDuct:VAV:Reheat = PERIMETER_TOP_ZN_1 ZN VAV TERMINAL\n   ** Warning ** Since Damper Heating Action = NORMAL, input for Maximum Flow Fraction During Reheat will be ignored.\n   **   ~~~   ** Occurs in AirTerminal:SingleDuct:VAV:Reheat = PERIMETER_TOP_ZN_1 ZN VAV TERMINAL\n   ** Warning ** Since Zone Minimum Air Flow Input Method = CONSTANT, input for Fixed Minimum Air Flow Rate will be ignored.\n   **   ~~~   ** Occurs in AirTerminal:SingleDuct:VAV:Reheat = PERIMETER_TOP_ZN_2 ZN VAV TERMINAL\n   ** Warning ** Since Damper Heating Action = NORMAL, input for Maximum Flow Fraction During Reheat will be ignored.\n   **   ~~~   ** Occurs in AirTerminal:SingleDuct:VAV:Reheat = PERIMETER_TOP_ZN_2 ZN VAV TERMINAL\n   ** Warning ** Since Zone Minimum Air Flow Input Method = CONSTANT, input for Fixed Minimum Air Flow Rate will be ignored.\n   **   ~~~   ** Occurs in AirTerminal:SingleDuct:VAV:Reheat = PERIMETER_TOP_ZN_3 ZN VAV TERMINAL\n   ** Warning ** Since Damper Heating Action = NORMAL, input for Maximum Flow Fraction During Reheat will be ignored.\n   **   ~~~   ** Occurs in AirTerminal:SingleDuct:VAV:Reheat = PERIMETER_TOP_ZN_3 ZN VAV TERMINAL\n   ** Warning ** Since Zone Minimum Air Flow Input Method = CONSTANT, input for Fixed Minimum Air Flow Rate will be ignored.\n   **   ~~~   ** Occurs in AirTerminal:SingleDuct:VAV:Reheat = PERIMETER_TOP_ZN_4 ZN VAV TERMINAL\n   ** Warning ** Since Damper Heating Action = NORMAL, input for Maximum Flow Fraction During Reheat will be ignored.\n   **   ~~~   ** Occurs in AirTerminal:SingleDuct:VAV:Reheat = PERIMETER_TOP_ZN_4 ZN VAV TERMINAL\n   ** Warning ** ManageSizing: Calculated Heating Design Air Flow Rate for System=5 ZONE PVAV 2 is zero.\n   **   ~~~   ** Check Sizing:Zone and ZoneControl:Thermostat inputs.\n   ************* Beginning Plant Sizing Calculations\n   ** Warning ** Output:Meter: invalid Key Name=\"DISTRICTCOOLING:FACILITY\" - not found.\n   ** Warning ** Output:Meter: invalid Key Name=\"DISTRICTHEATING:FACILITY\" - not found.\n   ** Warning ** Output:Meter:MeterFileOnly requested for \"Electricity:Facility\" (TimeStep), already on \"Output:Meter\". Will report to both eplusout.eso and eplusout.mtr\n   ************* Testing Individual Branch Integrity\n   ************* All Branches passed integrity testing\n   ************* Testing Individual Supply Air Path Integrity\n   ************* All Supply Air Paths passed integrity testing\n   ************* Testing Individual Return Air Path Integrity\n   ************* All Return Air Paths passed integrity testing\n   ************* No node connection errors were found.\n   ************* Beginning Simulation\n   ** Warning ** Processing Monthly Tabular Reports: Variable names not valid for this simulation\n   **   ~~~   ** ...use Output:Diagnostics,DisplayExtraWarnings; to show more details on individual variables.\n   ** Warning ** The resource referenced by LifeCycleCost:UsePriceEscalation= \"U.S. AVG  COMMERCIAL-ELECTRICITY\" has no energy cost. \n   **   ~~~   ** ... It is likely that the wrong resource is used. The resource should match the meter used in Utility:Tariff.\n   ** Warning ** The resource referenced by LifeCycleCost:UsePriceEscalation= \"U.S. AVG  COMMERCIAL-DISTILLATE OIL\" has no energy cost. \n   **   ~~~   ** ... It is likely that the wrong resource is used. The resource should match the meter used in Utility:Tariff.\n   ** Warning ** The resource referenced by LifeCycleCost:UsePriceEscalation= \"U.S. AVG  COMMERCIAL-RESIDUAL OIL\" has no energy cost. \n   **   ~~~   ** ... It is likely that the wrong resource is used. The resource should match the meter used in Utility:Tariff.\n   ** Warning ** The resource referenced by LifeCycleCost:UsePriceEscalation= \"U.S. AVG  COMMERCIAL-NATURAL GAS\" has no energy cost. \n   **   ~~~   ** ... It is likely that the wrong resource is used. The resource should match the meter used in Utility:Tariff.\n   ** Warning ** The resource referenced by LifeCycleCost:UsePriceEscalation= \"U.S. AVG  COMMERCIAL-COAL\" has no energy cost. \n   **   ~~~   ** ... It is likely that the wrong resource is used. The resource should match the meter used in Utility:Tariff.\n   ************* Simulation Error Summary *************\n   ************* There are 9 unused schedules in input.\n   ************* There are 9 unused week schedules in input.\n   ************* There are 29 unused day schedules in input.\n   ************* Use Output:Diagnostics,DisplayUnusedSchedules; to see them.\n   *************\n   ************* ===== Final Error Summary =====\n   ************* The following error categories occurred.  Consider correcting or noting.\n   ************* Nominally Unused Constructions\n   ************* ..The nominally unused constructions warning is provided to alert you to potential conditions that can cause\n   ************* ..extra time during simulation. Each construction is calculated by the algorithm indicated in the HeatBalanceAlgorithm\n   ************* ..object. You may remove the constructions indicated (when you use the DisplayExtraWarnings option).\n   *************\n   ************* EnergyPlus Warmup Error Summary. During Warmup: 0 Warning; 0 Severe Errors.\n   ************* EnergyPlus Sizing Error Summary. During Sizing: 43 Warning; 0 Severe Errors.\n   ************* EnergyPlus Completed Successfully-- 52 Warning; 0 Severe Errors; Elapsed Time=00hr 00min 46.35sec\n",
   "file_paths" : [
      "C:\\Users\\qi.li\\OneDrive - Argonne National Laboratory\\Projects\\GEB-FLA\\work\\workflow\\param_run"
   ],
   "hash" : "D0D4E0B9",
   "measure_paths" : [
      "C:\\Users\\qi.li\\OneDrive - Argonne National Laboratory\\Projects\\GEB-FLA\\work\\workflow\\param_run\\measures"
   ],
   "run_directory" : "C:\\Users\\qi.li\\OneDrive - Argonne National Laboratory\\Projects\\GEB-FLA\\work\\workflow\\param_run\\run\\MediumOffice_Post1980_3B_74_12_18_6_2_4_Inst_2",
   "seed_file" : "C:\\Users\\qi.li\\OneDrive - Argonne National Laboratory\\Projects\\GEB-FLA\\work\\workflow\\osw_output\\eplus\\MediumOffice_Post1980_3B_74_12_18_6_2_4.osm",
   "started_at" : "20191127T223919Z",
   "steps" : [
      {
         "arguments" : {
            "facade" : "North",
            "wwr" : 0.69999999999999996
         },
         "measure_dir_name" : "SetWindowToWallRatioByFacade",
         "result" : {
            "completed_at" : "20191127T223919Z",
            "measure_class_name" : "SetWindowToWallRatioByFacade",
            "measure_display_name" : "Set Window to Wall Ratio by Facade",
            "measure_name" : "set_window_to_wall_ratio_by_facade",
            "measure_taxonomy" : "Envelope.Fenestration",
            "measure_type" : "ModelMeasure",
            "measure_uid" : "c567a0bf-a7d9-4a06-afe9-bf7df79e6bf8",
            "measure_version_id" : "c13e9249-dac1-476c-941b-b62a14eb5571",
            "measure_version_modified" : "20190417T144750Z",
            "measure_xml_checksum" : "6DE831F7",
            "started_at" : "20191127T223919Z",
            "stderr" : "",
            "stdout" : "",
            "step_errors" : [],
            "step_files" : [],
            "step_final_condition" : "The model's final window to wall ratio for North facing exterior walls is 0.70. Window area increased by 987 (ft^2). The material and construction costs increased by $0.",
            "step_info" : [],
            "step_initial_condition" : "The model's initial window to wall ratio for North facing exterior walls was 0.48.",
            "step_result" : "Success",
            "step_values" : [
               {
                  "name" : "wwr",
                  "value" : 0.69999999999999996
               },
               {
                  "name" : "sillHeight",
                  "value" : 30
               },
               {
                  "name" : "facade",
                  "value" : "North"
               },
               {
                  "name" : "exl_spaces_not_incl_fl_area",
                  "value" : true
               },
               {
                  "name" : "split_at_doors",
                  "value" : "Split Walls at Doors"
               },
               {
                  "name" : "inset_tri_sub",
                  "value" : true
               },
               {
                  "name" : "triangulate",
                  "value" : true
               }
            ],
            "step_warnings" : []
         }
      },
      {
         "arguments" : {
            "facade" : "East",
            "wwr" : 0.69999999999999996
         },
         "measure_dir_name" : "SetWindowToWallRatioByFacade",
         "result" : {
            "completed_at" : "20191127T223919Z",
            "measure_class_name" : "SetWindowToWallRatioByFacade",
            "measure_display_name" : "Set Window to Wall Ratio by Facade",
            "measure_name" : "set_window_to_wall_ratio_by_facade",
            "measure_taxonomy" : "Envelope.Fenestration",
            "measure_type" : "ModelMeasure",
            "measure_uid" : "c567a0bf-a7d9-4a06-afe9-bf7df79e6bf8",
            "measure_version_id" : "c13e9249-dac1-476c-941b-b62a14eb5571",
            "measure_version_modified" : "20190417T144750Z",
            "measure_xml_checksum" : "6DE831F7",
            "started_at" : "20191127T223919Z",
            "stderr" : "",
            "stdout" : "",
            "step_errors" : [],
            "step_files" : [],
            "step_final_condition" : "The model's final window to wall ratio for East facing exterior walls is 0.70. Window area increased by 658 (ft^2). The material and construction costs increased by $0.",
            "step_info" : [],
            "step_initial_condition" : "The model's initial window to wall ratio for East facing exterior walls was 0.48.",
            "step_result" : "Success",
            "step_values" : [
               {
                  "name" : "wwr",
                  "value" : 0.69999999999999996
               },
               {
                  "name" : "sillHeight",
                  "value" : 30
               },
               {
                  "name" : "facade",
                  "value" : "East"
               },
               {
                  "name" : "exl_spaces_not_incl_fl_area",
                  "value" : true
               },
               {
                  "name" : "split_at_doors",
                  "value" : "Split Walls at Doors"
               },
               {
                  "name" : "inset_tri_sub",
                  "value" : true
               },
               {
                  "name" : "triangulate",
                  "value" : true
               }
            ],
            "step_warnings" : []
         }
      },
      {
         "arguments" : {
            "facade" : "South",
            "wwr" : 0.69999999999999996
         },
         "measure_dir_name" : "SetWindowToWallRatioByFacade",
         "result" : {
            "completed_at" : "20191127T223919Z",
            "measure_class_name" : "SetWindowToWallRatioByFacade",
            "measure_display_name" : "Set Window to Wall Ratio by Facade",
            "measure_name" : "set_window_to_wall_ratio_by_facade",
            "measure_taxonomy" : "Envelope.Fenestration",
            "measure_type" : "ModelMeasure",
            "measure_uid" : "c567a0bf-a7d9-4a06-afe9-bf7df79e6bf8",
            "measure_version_id" : "c13e9249-dac1-476c-941b-b62a14eb5571",
            "measure_version_modified" : "20190417T144750Z",
            "measure_xml_checksum" : "6DE831F7",
            "started_at" : "20191127T223919Z",
            "stderr" : "",
            "stdout" : "",
            "step_errors" : [],
            "step_files" : [],
            "step_final_condition" : "The model's final window to wall ratio for South facing exterior walls is 0.70. Window area increased by 987 (ft^2). The material and construction costs increased by $0.",
            "step_info" : [],
            "step_initial_condition" : "The model's initial window to wall ratio for South facing exterior walls was 0.48.",
            "step_result" : "Success",
            "step_values" : [
               {
                  "name" : "wwr",
                  "value" : 0.69999999999999996
               },
               {
                  "name" : "sillHeight",
                  "value" : 30
               },
               {
                  "name" : "facade",
                  "value" : "South"
               },
               {
                  "name" : "exl_spaces_not_incl_fl_area",
                  "value" : true
               },
               {
                  "name" : "split_at_doors",
                  "value" : "Split Walls at Doors"
               },
               {
                  "name" : "inset_tri_sub",
                  "value" : true
               },
               {
                  "name" : "triangulate",
                  "value" : true
               }
            ],
            "step_warnings" : []
         }
      },
      {
         "arguments" : {
            "facade" : "West",
            "wwr" : 0.69999999999999996
         },
         "measure_dir_name" : "SetWindowToWallRatioByFacade",
         "result" : {
            "completed_at" : "20191127T223919Z",
            "measure_class_name" : "SetWindowToWallRatioByFacade",
            "measure_display_name" : "Set Window to Wall Ratio by Facade",
            "measure_name" : "set_window_to_wall_ratio_by_facade",
            "measure_taxonomy" : "Envelope.Fenestration",
            "measure_type" : "ModelMeasure",
            "measure_uid" : "c567a0bf-a7d9-4a06-afe9-bf7df79e6bf8",
            "measure_version_id" : "c13e9249-dac1-476c-941b-b62a14eb5571",
            "measure_version_modified" : "20190417T144750Z",
            "measure_xml_checksum" : "6DE831F7",
            "started_at" : "20191127T223919Z",
            "stderr" : "",
            "stdout" : "",
            "step_errors" : [],
            "step_files" : [],
            "step_final_condition" : "The model's final window to wall ratio for West facing exterior walls is 0.70. Window area increased by 658 (ft^2). The material and construction costs increased by $0.",
            "step_info" : [],
            "step_initial_condition" : "The model's initial window to wall ratio for West facing exterior walls was 0.48.",
            "step_result" : "Success",
            "step_values" : [
               {
                  "name" : "wwr",
                  "value" : 0.69999999999999996
               },
               {
                  "name" : "sillHeight",
                  "value" : 30
               },
               {
                  "name" : "facade",
                  "value" : "West"
               },
               {
                  "name" : "exl_spaces_not_incl_fl_area",
                  "value" : true
               },
               {
                  "name" : "split_at_doors",
                  "value" : "Split Walls at Doors"
               },
               {
                  "name" : "inset_tri_sub",
                  "value" : true
               },
               {
                  "name" : "triangulate",
                  "value" : true
               }
            ],
            "step_warnings" : []
         }
      },
      {
         "arguments" : {
            "reporting_frequency" : "timestep",
            "variable_name" : "Site Outdoor Air Drybulb Temperature"
         },
         "measure_dir_name" : "AddOutputVariable",
         "result" : {
            "completed_at" : "20191127T223919Z",
            "measure_class_name" : "AddOutputVariable",
            "measure_display_name" : "Add Output Variable",
            "measure_name" : "add_output_variable",
            "measure_taxonomy" : "Reporting.QAQC",
            "measure_type" : "ModelMeasure",
            "measure_uid" : "2a058afb-e349-49ae-a4bf-2c56a42b4352",
            "measure_version_id" : "4a3ec2bc-75b6-4224-948f-ef727c4a31a3",
            "measure_version_modified" : "20180626T202311Z",
            "measure_xml_checksum" : "0CA4D54C",
            "started_at" : "20191127T223919Z",
            "stderr" : "",
            "stdout" : "",
            "step_errors" : [],
            "step_files" : [],
            "step_final_condition" : "The model finished with 1 output variable objects.",
            "step_info" : [
               "Adding output variable for Site Outdoor Air Drybulb Temperature reporting timestep.",
               "Key value for variable is *."
            ],
            "step_initial_condition" : "The model started with 0 output meter objects.",
            "step_result" : "Success",
            "step_values" : [
               {
                  "name" : "variable_name",
                  "value" : "Site Outdoor Air Drybulb Temperature"
               },
               {
                  "name" : "reporting_frequency",
                  "value" : "timestep"
               },
               {
                  "name" : "key_value",
                  "value" : "*"
               }
            ],
            "step_warnings" : [
               "The model started with 0 output meter objects.",
               "The model finished with 1 output variable objects."
            ]
         }
      }
   ],
   "updated_at" : "20191127T224008Z",
   "weather_file" : "C:\\Users\\qi.li\\OneDrive - Argonne National Laboratory\\Projects\\GEB-FLA\\work\\workflow\\osw_output\\run\\000_CreateDOEPrototypeBuilding\\extracted_files\\weather\\USA_TX_El.Paso.Intl.AP.722700_TMY3.epw"
}
