{
   "completed_at" : "20191120T183323Z",
   "completed_status" : "Success",
   "current_step" : 4,
   "eplusout_err" : "Program Version,EnergyPlus, Version 9.1.0-08d2e308bb, YMD=2019.11.20 10:32,\n   ************* Beginning Zone Sizing Calculations\n   ** Warning ** ProcessScheduleInput: Schedule:Day:Interval=\"ECONOMIZER MAX OA FRACTION 70 PCT DEFAULT\", Blank Schedule Type Limits Name input -- will not be validated.\n   ** Warning ** ProcessScheduleInput: Schedule:Day:Interval=\"OFFICEMEDIUM HVACOPERATIONSCHD DEFAULT\", Blank Schedule Type Limits Name input -- will not be validated.\n   ** Warning ** ProcessScheduleInput: Schedule:Day:Interval=\"OFFICEMEDIUM HVACOPERATIONSCHD SMRDSN|WKDY DAY\", Blank Schedule Type Limits Name input -- will not be validated.\n   ** Warning ** ProcessScheduleInput: Schedule:Day:Interval=\"OFFICEMEDIUM HVACOPERATIONSCHD SUMMER DESIGN DAY\", Blank Schedule Type Limits Name input -- will not be validated.\n   ** Warning ** ProcessScheduleInput: Schedule:Day:Interval=\"OFFICEMEDIUM HVACOPERATIONSCHD WINTER DESIGN DAY\", Blank Schedule Type Limits Name input -- will not be validated.\n   ** Warning ** ProcessScheduleInput: Schedule:Day:Interval=\"OFFICEMEDIUM HVACOPERATIONSCHD WNTRDSN|SAT DAY\", Blank Schedule Type Limits Name input -- will not be validated.\n   ** Warning ** ProcessScheduleInput: Schedule:Year=\"OFFICEMEDIUM HVACOPERATIONSCHD\", Blank Schedule Type Limits Name input -- will not be validated.\n   ** Warning ** ProcessScheduleInput: Schedule:Constant=\"ALWAYS OFF DISCRETE\", Blank Schedule Type Limits Name input -- will not be validated.\n   ** Warning ** ProcessScheduleInput: Schedule:Constant=\"ALWAYS ON CONTINUOUS\", Blank Schedule Type Limits Name input -- will not be validated.\n   ** Warning ** CheckUsedConstructions: There are 9 nominally unused constructions in input.\n   **   ~~~   ** For explicit details on each unused construction, use Output:Diagnostics,DisplayExtraWarnings;\n   ** Warning ** GetDaylightingControls: Fraction of Zone controlled by the Daylighting reference points is < 1.0.\n   **   ~~~   ** ..discovered in \"Daylighting:Controls\" for Zone=\"PERIMETER_BOT_ZN_1 ZN\", only 0.38 of the zone is controlled.\n   ** Warning ** GetDaylightingControls: Fraction of Zone controlled by the Daylighting reference points is < 1.0.\n   **   ~~~   ** ..discovered in \"Daylighting:Controls\" for Zone=\"PERIMETER_BOT_ZN_2 ZN\", only 0.38 of the zone is controlled.\n   ** Warning ** GetDaylightingControls: Fraction of Zone controlled by the Daylighting reference points is < 1.0.\n   **   ~~~   ** ..discovered in \"Daylighting:Controls\" for Zone=\"PERIMETER_BOT_ZN_3 ZN\", only 0.38 of the zone is controlled.\n   ** Warning ** GetDaylightingControls: Fraction of Zone controlled by the Daylighting reference points is < 1.0.\n   **   ~~~   ** ..discovered in \"Daylighting:Controls\" for Zone=\"PERIMETER_BOT_ZN_4 ZN\", only 0.38 of the zone is controlled.\n   ** Warning ** GetDaylightingControls: Fraction of Zone controlled by the Daylighting reference points is < 1.0.\n   **   ~~~   ** ..discovered in \"Daylighting:Controls\" for Zone=\"PERIMETER_MID_ZN_1 ZN\", only 0.38 of the zone is controlled.\n   ** Warning ** GetDaylightingControls: Fraction of Zone controlled by the Daylighting reference points is < 1.0.\n   **   ~~~   ** ..discovered in \"Daylighting:Controls\" for Zone=\"PERIMETER_MID_ZN_2 ZN\", only 0.38 of the zone is controlled.\n   ** Warning ** GetDaylightingControls: Fraction of Zone controlled by the Daylighting reference points is < 1.0.\n   **   ~~~   ** ..discovered in \"Daylighting:Controls\" for Zone=\"PERIMETER_MID_ZN_3 ZN\", only 0.38 of the zone is controlled.\n   ** Warning ** GetDaylightingControls: Fraction of Zone controlled by the Daylighting reference points is < 1.0.\n   **   ~~~   ** ..discovered in \"Daylighting:Controls\" for Zone=\"PERIMETER_MID_ZN_4 ZN\", only 0.38 of the zone is controlled.\n   ** Warning ** GetDaylightingControls: Fraction of Zone controlled by the Daylighting reference points is < 1.0.\n   **   ~~~   ** ..discovered in \"Daylighting:Controls\" for Zone=\"PERIMETER_TOP_ZN_1 ZN\", only 0.38 of the zone is controlled.\n   ** Warning ** GetDaylightingControls: Fraction of Zone controlled by the Daylighting reference points is < 1.0.\n   **   ~~~   ** ..discovered in \"Daylighting:Controls\" for Zone=\"PERIMETER_TOP_ZN_2 ZN\", only 0.38 of the zone is controlled.\n   ** Warning ** GetDaylightingControls: Fraction of Zone controlled by the Daylighting reference points is < 1.0.\n   **   ~~~   ** ..discovered in \"Daylighting:Controls\" for Zone=\"PERIMETER_TOP_ZN_3 ZN\", only 0.38 of the zone is controlled.\n   ** Warning ** GetDaylightingControls: Fraction of Zone controlled by the Daylighting reference points is < 1.0.\n   **   ~~~   ** ..discovered in \"Daylighting:Controls\" for Zone=\"PERIMETER_TOP_ZN_4 ZN\", only 0.38 of the zone is controlled.\n   ************* Beginning System Sizing Calculations\n   ** Warning ** Since Zone Minimum Air Flow Input Method = CONSTANT, input for Fixed Minimum Air Flow Rate will be ignored.\n   **   ~~~   ** Occurs in AirTerminal:SingleDuct:VAV:Reheat = CORE_BOTTOM ZN VAV TERMINAL\n   ** Warning ** Since Zone Minimum Air Flow Input Method = CONSTANT, input for Fixed Minimum Air Flow Rate will be ignored.\n   **   ~~~   ** Occurs in AirTerminal:SingleDuct:VAV:Reheat = CORE_MID ZN VAV TERMINAL\n   ** Warning ** Since Zone Minimum Air Flow Input Method = CONSTANT, input for Fixed Minimum Air Flow Rate will be ignored.\n   **   ~~~   ** Occurs in AirTerminal:SingleDuct:VAV:Reheat = CORE_TOP ZN VAV TERMINAL\n   ** Warning ** Since Zone Minimum Air Flow Input Method = CONSTANT, input for Fixed Minimum Air Flow Rate will be ignored.\n   **   ~~~   ** Occurs in AirTerminal:SingleDuct:VAV:Reheat = PERIMETER_BOT_ZN_1 ZN VAV TERMINAL\n   ** Warning ** Since Zone Minimum Air Flow Input Method = CONSTANT, input for Fixed Minimum Air Flow Rate will be ignored.\n   **   ~~~   ** Occurs in AirTerminal:SingleDuct:VAV:Reheat = PERIMETER_BOT_ZN_2 ZN VAV TERMINAL\n   ** Warning ** Since Zone Minimum Air Flow Input Method = CONSTANT, input for Fixed Minimum Air Flow Rate will be ignored.\n   **   ~~~   ** Occurs in AirTerminal:SingleDuct:VAV:Reheat = PERIMETER_BOT_ZN_3 ZN VAV TERMINAL\n   ** Warning ** Since Zone Minimum Air Flow Input Method = CONSTANT, input for Fixed Minimum Air Flow Rate will be ignored.\n   **   ~~~   ** Occurs in AirTerminal:SingleDuct:VAV:Reheat = PERIMETER_BOT_ZN_4 ZN VAV TERMINAL\n   ** Warning ** Since Zone Minimum Air Flow Input Method = CONSTANT, input for Fixed Minimum Air Flow Rate will be ignored.\n   **   ~~~   ** Occurs in AirTerminal:SingleDuct:VAV:Reheat = PERIMETER_MID_ZN_1 ZN VAV TERMINAL\n   ** Warning ** Since Zone Minimum Air Flow Input Method = CONSTANT, input for Fixed Minimum Air Flow Rate will be ignored.\n   **   ~~~   ** Occurs in AirTerminal:SingleDuct:VAV:Reheat = PERIMETER_MID_ZN_2 ZN VAV TERMINAL\n   ** Warning ** Since Zone Minimum Air Flow Input Method = CONSTANT, input for Fixed Minimum Air Flow Rate will be ignored.\n   **   ~~~   ** Occurs in AirTerminal:SingleDuct:VAV:Reheat = PERIMETER_MID_ZN_3 ZN VAV TERMINAL\n   ** Warning ** Since Zone Minimum Air Flow Input Method = CONSTANT, input for Fixed Minimum Air Flow Rate will be ignored.\n   **   ~~~   ** Occurs in AirTerminal:SingleDuct:VAV:Reheat = PERIMETER_MID_ZN_4 ZN VAV TERMINAL\n   ** Warning ** Since Zone Minimum Air Flow Input Method = CONSTANT, input for Fixed Minimum Air Flow Rate will be ignored.\n   **   ~~~   ** Occurs in AirTerminal:SingleDuct:VAV:Reheat = PERIMETER_TOP_ZN_1 ZN VAV TERMINAL\n   ** Warning ** Since Zone Minimum Air Flow Input Method = CONSTANT, input for Fixed Minimum Air Flow Rate will be ignored.\n   **   ~~~   ** Occurs in AirTerminal:SingleDuct:VAV:Reheat = PERIMETER_TOP_ZN_2 ZN VAV TERMINAL\n   ** Warning ** Since Zone Minimum Air Flow Input Method = CONSTANT, input for Fixed Minimum Air Flow Rate will be ignored.\n   **   ~~~   ** Occurs in AirTerminal:SingleDuct:VAV:Reheat = PERIMETER_TOP_ZN_3 ZN VAV TERMINAL\n   ** Warning ** Since Zone Minimum Air Flow Input Method = CONSTANT, input for Fixed Minimum Air Flow Rate will be ignored.\n   **   ~~~   ** Occurs in AirTerminal:SingleDuct:VAV:Reheat = PERIMETER_TOP_ZN_4 ZN VAV TERMINAL\n   ************* Beginning Plant Sizing Calculations\n   ** Warning ** Output:Meter: invalid Key Name=\"DISTRICTCOOLING:FACILITY\" - not found.\n   ** Warning ** Output:Meter: invalid Key Name=\"DISTRICTHEATING:FACILITY\" - not found.\n   ** Warning ** Output:Meter:MeterFileOnly requested for \"Electricity:Facility\" (TimeStep), already on \"Output:Meter\". Will report to both eplusout.eso and eplusout.mtr\n   ************* Testing Individual Branch Integrity\n   ************* All Branches passed integrity testing\n   ************* Testing Individual Supply Air Path Integrity\n   ************* All Supply Air Paths passed integrity testing\n   ************* Testing Individual Return Air Path Integrity\n   ************* All Return Air Paths passed integrity testing\n   ************* No node connection errors were found.\n   ************* Beginning Simulation\n   ** Warning ** Processing Monthly Tabular Reports: Variable names not valid for this simulation\n   **   ~~~   ** ...use Output:Diagnostics,DisplayExtraWarnings; to show more details on individual variables.\n   ** Warning ** SimHVAC: Maximum iterations (25) exceeded for all HVAC loops, at RUN PERIOD 1, 01/26 09:30 - 09:45\n   **   ~~~   ** The solution for one or more of the Air Loop HVAC systems did not appear to converge\n   **   ~~~   ** ...use Output:Diagnostics,DisplayExtraWarnings; to show more details on each max iteration exceeded.\n   ** Warning ** SimHVAC: Maximum iterations (25) exceeded for all HVAC loops, at RUN PERIOD 1, 02/03 08:56 - 09:00\n   **   ~~~   ** The solution for one or more of the Air Loop HVAC systems did not appear to converge\n   ** Warning ** SimHVAC: Maximum iterations (25) exceeded for all HVAC loops, at RUN PERIOD 1, 03/01 08:15 - 08:30\n   **   ~~~   ** The solution for one or more of the Air Loop HVAC systems did not appear to converge\n   ** Warning ** SimHVAC: Maximum iterations (25) exceeded for all HVAC loops, at RUN PERIOD 1, 04/11 06:20 - 06:25\n   **   ~~~   ** The solution for one or more of the Air Loop HVAC systems did not appear to converge\n   ** Warning ** SimHVAC: Maximum iterations (25) exceeded for all HVAC loops, at RUN PERIOD 1, 04/12 06:15 - 06:30\n   **   ~~~   ** The solution for one or more of the Air Loop HVAC systems did not appear to converge\n   ** Warning ** SimHVAC: Maximum iterations (25) exceeded for all HVAC loops, at RUN PERIOD 1, 12/21 08:50 - 08:55\n   **   ~~~   ** The solution for one or more of the Air Loop HVAC systems did not appear to converge\n   ** Warning ** The resource referenced by LifeCycleCost:UsePriceEscalation= \"U.S. AVG  COMMERCIAL-ELECTRICITY\" has no energy cost. \n   **   ~~~   ** ... It is likely that the wrong resource is used. The resource should match the meter used in Utility:Tariff.\n   ** Warning ** The resource referenced by LifeCycleCost:UsePriceEscalation= \"U.S. AVG  COMMERCIAL-DISTILLATE OIL\" has no energy cost. \n   **   ~~~   ** ... It is likely that the wrong resource is used. The resource should match the meter used in Utility:Tariff.\n   ** Warning ** The resource referenced by LifeCycleCost:UsePriceEscalation= \"U.S. AVG  COMMERCIAL-RESIDUAL OIL\" has no energy cost. \n   **   ~~~   ** ... It is likely that the wrong resource is used. The resource should match the meter used in Utility:Tariff.\n   ** Warning ** The resource referenced by LifeCycleCost:UsePriceEscalation= \"U.S. AVG  COMMERCIAL-NATURAL GAS\" has no energy cost. \n   **   ~~~   ** ... It is likely that the wrong resource is used. The resource should match the meter used in Utility:Tariff.\n   ** Warning ** The resource referenced by LifeCycleCost:UsePriceEscalation= \"U.S. AVG  COMMERCIAL-COAL\" has no energy cost. \n   **   ~~~   ** ... It is likely that the wrong resource is used. The resource should match the meter used in Utility:Tariff.\n   ************* Simulation Error Summary *************\n   ************* There are 9 unused schedules in input.\n   ************* There are 9 unused week schedules in input.\n   ************* There are 30 unused day schedules in input.\n   ************* Use Output:Diagnostics,DisplayUnusedSchedules; to see them.\n   *************\n   ************* ===== Final Error Summary =====\n   ************* The following error categories occurred.  Consider correcting or noting.\n   ************* Nominally Unused Constructions\n   ************* ..The nominally unused constructions warning is provided to alert you to potential conditions that can cause\n   ************* ..extra time during simulation. Each construction is calculated by the algorithm indicated in the HeatBalanceAlgorithm\n   ************* ..object. You may remove the constructions indicated (when you use the DisplayExtraWarnings option).\n   *************\n   ************* EnergyPlus Warmup Error Summary. During Warmup: 0 Warning; 0 Severe Errors.\n   ************* EnergyPlus Sizing Error Summary. During Sizing: 37 Warning; 0 Severe Errors.\n   ************* EnergyPlus Completed Successfully-- 52 Warning; 0 Severe Errors; Elapsed Time=00hr 00min 45.76sec\n",
   "hash" : "3C9272FA",
   "seed_file" : null,
   "started_at" : "20191120T183218Z",
   "steps" : [
      {
         "arguments" : {
            "building_type" : "MediumOffice",
            "climate_zone" : "ASHRAE 169-2006-3B",
            "template" : "90.1-2010"
         },
         "measure_dir_name" : "CreateDOEPrototypeBuilding",
         "result" : {
            "completed_at" : "20191120T183234Z",
            "measure_class_name" : "CreateDOEPrototypeBuilding",
            "measure_display_name" : "Create DOE Prototype Building",
            "measure_name" : "create_doe_prototype_building",
            "measure_taxonomy" : "Whole Building.Space Types",
            "measure_type" : "ModelMeasure",
            "measure_uid" : "be90fd0b-a651-467a-bc8d-29d310b0f937",
            "measure_version_id" : "9a5b4d91-633d-4512-bd49-5276335aa178",
            "measure_version_modified" : "20181101T164804Z",
            "measure_xml_checksum" : "057E8D9D",
            "started_at" : "20191120T183220Z",
            "stderr" : "",
            "stdout" : "[openstudio.model.YearDescription] <1> 'UseWeatherFile' is not yet a supported option for YearDescription\n[openstudio.model.YearDescription] <1> 'UseWeatherFile' is not yet a supported option for YearDescription\n",
            "step_errors" : [],
            "step_files" : [],
            "step_info" : [
               "Loaded space type map from osm file: ../../../data/geometry/ASHRAEMediumOffice.osm",
               "Started applying space types (loads)",
               "Office WholeBuilding - Md Office had no people, one has been created.",
               "Office WholeBuilding - Md Office set occupancy to 5.0 people/1000 ft^2.",
               "Office WholeBuilding - Md Office had no lights, one has been created.",
               "Office WholeBuilding - Md Office set LPD to 0.9 W/ft^2.",
               "Office WholeBuilding - Md Office had no electric equipment, one has been created.",
               "Office WholeBuilding - Md Office set electric EPD to 0.75 W/ft^2.",
               "Office WholeBuilding - Md Office had no ventilation specification, one has been created.",
               "Office WholeBuilding - Md Office set ventilation per area to 0.085 cfm/ft^2.",
               "Office WholeBuilding - Md Office had no infiltration objects, one has been created.",
               "Office WholeBuilding - Md Office set infiltration to 0.0 per ft^2 exterior surface area.",
               "Office WholeBuilding - Md Office set occupancy schedule to OfficeMedium BLDG_OCC_SCH.",
               "Office WholeBuilding - Md Office set occupant activity schedule to OfficeMedium ACTIVITY_SCH.",
               "Office WholeBuilding - Md Office set lighting schedule to OfficeMedium BLDG_LIGHT_SCH_2010.",
               "Office WholeBuilding - Md Office set electric equipment schedule to OfficeMedium BLDG_EQUIP_SCH_2010.",
               "Office WholeBuilding - Md Office set infiltration schedule to OfficeMedium INFIL_SCH_PNNL.",
               "Office WholeBuilding - Md Office set heating setpoint schedule to OfficeMedium HTGSETP_SCH_PACU_VAV_bot.",
               "Office WholeBuilding - Md Office set cooling setpoint schedule to OfficeMedium CLGSETP_SCH_NO_SETBACK.",
               "Finished applying space types (loads)",
               "For 90.1-2010, no exterior wall area was found, no infiltration will be added.",
               "For 90.1-2010, no exterior wall area was found, no infiltration will be added.",
               "For 90.1-2010, no exterior wall area was found, no infiltration will be added.",
               "For FirstFloor_Plenum, set infiltration rate to 0.112 cfm/ft2 exterior wall area (aka 1.0 cfm/ft2 @75Pa).",
               "For MidFloor_Plenum, set infiltration rate to 0.112 cfm/ft2 exterior wall area (aka 1.0 cfm/ft2 @75Pa).",
               "For Perimeter_bot_ZN_1, set infiltration rate to 0.112 cfm/ft2 exterior wall area (aka 1.0 cfm/ft2 @75Pa).",
               "For Perimeter_bot_ZN_2, set infiltration rate to 0.112 cfm/ft2 exterior wall area (aka 1.0 cfm/ft2 @75Pa).",
               "For Perimeter_bot_ZN_3, set infiltration rate to 0.112 cfm/ft2 exterior wall area (aka 1.0 cfm/ft2 @75Pa).",
               "For Perimeter_bot_ZN_4, set infiltration rate to 0.112 cfm/ft2 exterior wall area (aka 1.0 cfm/ft2 @75Pa).",
               "For Perimeter_mid_ZN_1, set infiltration rate to 0.112 cfm/ft2 exterior wall area (aka 1.0 cfm/ft2 @75Pa).",
               "For Perimeter_mid_ZN_2, set infiltration rate to 0.112 cfm/ft2 exterior wall area (aka 1.0 cfm/ft2 @75Pa).",
               "For Perimeter_mid_ZN_3, set infiltration rate to 0.112 cfm/ft2 exterior wall area (aka 1.0 cfm/ft2 @75Pa).",
               "For Perimeter_mid_ZN_4, set infiltration rate to 0.112 cfm/ft2 exterior wall area (aka 1.0 cfm/ft2 @75Pa).",
               "For Perimeter_top_ZN_1, set infiltration rate to 0.112 cfm/ft2 exterior wall area (aka 1.0 cfm/ft2 @75Pa).",
               "For Perimeter_top_ZN_2, set infiltration rate to 0.112 cfm/ft2 exterior wall area (aka 1.0 cfm/ft2 @75Pa).",
               "For Perimeter_top_ZN_3, set infiltration rate to 0.112 cfm/ft2 exterior wall area (aka 1.0 cfm/ft2 @75Pa).",
               "For Perimeter_top_ZN_4, set infiltration rate to 0.112 cfm/ft2 exterior wall area (aka 1.0 cfm/ft2 @75Pa).",
               "For TopFloor_Plenum, set infiltration rate to 0.112 cfm/ft2 exterior wall area (aka 1.0 cfm/ft2 @75Pa).",
               "Started creating thermal zones",
               "Finished creating thermal zones",
               "Started Adding HVAC",
               "Adding Packaged VAV for 5 zones.",
               "Adding Packaged VAV for 5 zones.",
               "Adding Packaged VAV for 5 zones.",
               "Finished adding HVAC",
               "Started applying constructions",
               "Adding construction set: 90.1-2010-ASHRAE 169-2006-3B-MediumOffice--is_residentialNo",
               "Adding construction Typical Insulated Exterior Mass Floor R-9.35.",
               "Adding construction Typical Insulated Steel Framed Exterior Wall R-11.9.",
               "Adding construction Typical IEAD Roof - Highly Reflective R-20.83.",
               "Adding construction Typical Interior Floor.",
               "Adding construction Typical Interior Wall.",
               "Adding construction Typical Interior Ceiling.",
               "Adding construction Smallhotel 2010 Slab Floor.",
               "Adding construction Typical Insulated Basement Mass Wall.",
               "Adding construction U 0.62 SHGC 0.25 Dbl Ref-C-H Clr 6mm/6mm Air.",
               "Adding construction Typical Insulated Metal Door R-1.43.",
               "Adding construction U 0.88 SHGC 0.16 Sgl Ref-A-L Clr 6mm.",
               "Adding construction Typical Overhead Door.",
               "Adding construction U 1.17 SHGC 0.39 Simple Glazing Skylight U-1.17 SHGC 0.39.",
               "Adding construction Typical Interior Window.",
               "Adding construction Typical Interior Door.",
               "Adding construction Typical Interior Partition.",
               "Construction set for template =90.1-2010, climate zone set =ClimateZone 3, building type = Office, space type = WholeBuilding - Md Office, is residential = No was not found in standards_data",
               "Adding construction set: 90.1-2010-ASHRAE 169-2006-3B-MediumOffice-Plenum-is_residentialNo",
               "Adding construction Plenum Acoustical Tile.",
               "Finished applying constructions",
               "Started building type specific adjustments",
               "Finished building type specific adjustments",
               "Added door infiltration",
               "Added internal mass 'Core_mid Mass' to space 'Core_mid'.",
               "Added internal mass 'Perimeter_top_ZN_2 Mass' to space 'Perimeter_top_ZN_2'.",
               "Added internal mass 'Perimeter_bot_ZN_4 Mass' to space 'Perimeter_bot_ZN_4'.",
               "Added internal mass 'Perimeter_top_ZN_4 Mass' to space 'Perimeter_top_ZN_4'.",
               "Added internal mass 'Perimeter_mid_ZN_3 Mass' to space 'Perimeter_mid_ZN_3'.",
               "Added internal mass 'Core_top Mass' to space 'Core_top'.",
               "Added internal mass 'Perimeter_mid_ZN_2 Mass' to space 'Perimeter_mid_ZN_2'.",
               "Added internal mass 'TopFloor_Plenum Mass' to space 'TopFloor_Plenum'.",
               "Added internal mass 'Perimeter_bot_ZN_3 Mass' to space 'Perimeter_bot_ZN_3'.",
               "Added internal mass 'Perimeter_mid_ZN_4 Mass' to space 'Perimeter_mid_ZN_4'.",
               "Added internal mass 'Perimeter_bot_ZN_2 Mass' to space 'Perimeter_bot_ZN_2'.",
               "Added internal mass 'Perimeter_top_ZN_3 Mass' to space 'Perimeter_top_ZN_3'.",
               "Added internal mass 'Perimeter_top_ZN_1 Mass' to space 'Perimeter_top_ZN_1'.",
               "Added internal mass 'FirstFloor_Plenum Mass' to space 'FirstFloor_Plenum'.",
               "Added internal mass 'Core_bottom Mass' to space 'Core_bottom'.",
               "Added internal mass 'Perimeter_bot_ZN_1 Mass' to space 'Perimeter_bot_ZN_1'.",
               "Added internal mass 'Perimeter_mid_ZN_1 Mass' to space 'Perimeter_mid_ZN_1'.",
               "Added internal mass 'MidFloor_Plenum Mass' to space 'MidFloor_Plenum'.",
               "Finished adding internal mass",
               "Started Adding Service Water Heating",
               "Added water heater called 100gal Natural Gas Water Heater - 100kBtu/hr",
               "Added circulating SWH loop called Main Service Water Loop",
               "Added 15 water fixtures to model",
               "Finished adding Service Water Heating",
               "Started adding exterior lights",
               "Finished adding exterior lights",
               "Started Adding Occupancy Sensors",
               "Finished Adding Occupancy Sensors",
               "Started adding weather file for climate zone: ASHRAE 169-2006-3B.",
               "Added El Paso International Ap  Ut Ann Htg 99.6% Condns DB design day.",
               "Added El Paso International Ap  Ut Ann Clg .4% Condns DB=>MWB design day.",
               "Set Daylight Saving Start Date to 2nd Sunday in March and end date to 1st Sunday in November.",
               "Set sizing factors to 1.0 for heating and 1.0 for cooling.",
               "Running simulation /Users/ryin/github/task8-parametric-runs/osw_output/run/000_CreateDOEPrototypeBuilding/prototypeModel/SR1.",
               "Finished run.",
               "Started applying multizone vav OA sizing.",
               "For 5 Zone PVAV: the multizone outdoor air calculation method was applied.  A simple summation of the zone requirements gives a value of 1519 cfm.  However, applying the multizone method requires 2197 cfm based on the ventilation effectiveness of the system.",
               "For 5 Zone PVAV 1: Zone Core_mid ZN has a ventilation effectiveness of 0.58.  Increasing to 0.6 by increasing minimum damper position from 0.3 to 0.31.",
               "For 5 Zone PVAV 1: the multizone outdoor air calculation method was applied.  A simple summation of the zone outdoor air requirements gives a value of 1519 cfm.  Applying the multizone method gives a value of 2637 cfm, with an original system ventilation effectiveness of 0.58.  After increasing the minimum damper position in 1 critical zones, the resulting requirement is 2532 cfm with a system ventilation effectiveness of 0.6.",
               "For 5 Zone PVAV 2: Zone Core_top ZN has a ventilation effectiveness of 0.58.  Increasing to 0.6 by increasing minimum damper position from 0.3 to 0.31.",
               "For 5 Zone PVAV 2: the multizone outdoor air calculation method was applied.  A simple summation of the zone outdoor air requirements gives a value of 1519 cfm.  Applying the multizone method gives a value of 2611 cfm, with an original system ventilation effectiveness of 0.58.  After increasing the minimum damper position in 1 critical zones, the resulting requirement is 2532 cfm with a system ventilation effectiveness of 0.6.",
               "Finished applying multizone vav OA sizing.",
               "Started applying prototype HVAC assumptions.",
               "For Prototype: 5 Zone PVAV 1 Fan: 11366cfm; Pressure Rise = 5.58in w.c.",
               "For Prototype: 5 Zone PVAV 2 Fan: 12278cfm; Pressure Rise = 5.58in w.c.",
               "For Prototype: 5 Zone PVAV Fan: 12611cfm; Pressure Rise = 5.58in w.c.",
               "For 5 Zone PVAV 1 Fan: allowed_hp = 16.89HP; motor eff = 93.0%; total fan eff = 60% based on 11366 cfm.",
               "For 5 Zone PVAV 2 Fan: allowed_hp = 18.24HP; motor eff = 93.0%; total fan eff = 60% based on 12278 cfm.",
               "For 5 Zone PVAV Fan: allowed_hp = 18.74HP; motor eff = 93.0%; total fan eff = 60% based on 12611 cfm.",
               "5 Zone PVAV requires an economizer because the total cooling capacity of 336160 Btu/hr exceeds the minimum capacity of 54000 Btu/hr.",
               "5 Zone PVAV 1 requires an economizer because the total cooling capacity of 302977 Btu/hr exceeds the minimum capacity of 54000 Btu/hr.",
               "5 Zone PVAV 2 requires an economizer because the total cooling capacity of 327304 Btu/hr exceeds the minimum capacity of 54000 Btu/hr.",
               "Finished applying prototype HVAC assumptions.",
               "Started applying HVAC efficiency standards.",
               "For 5 Zone PVAV, ERV not required based on 12% OA flow, design supply air flow of 12611cfm, and climate zone ASHRAE 169-2006-3B.",
               "For 5 Zone PVAV Fan: Part load fan power control is required for 18.4 HP fan.",
               "For 5 Zone PVAV Fan: Set fan curve coefficients to reflect control type of 'Multi Zone VAV with VSD and SP Setpoint Reset'.",
               "For 5 Zone PVAV: DCV is not required since the system has an economizer, but the min oa flow is 0 cfm, less than the minimum of 1200 cfm for systems with an economizer.",
               "For 5 Zone PVAV: Supply air temperature reset is required.",
               "For 5 Zone PVAV: Supply air temperature reset was enabled using a SPM Warmest with a min SAT of 55F and a max SAT of 60F.",
               "For 5 Zone PVAV: Availability schedule is already set to OfficeMedium HVACOperationSchd.  Will assume this includes unoccupied shut down; no changes will be made.",
               "For 5 Zone PVAV: Because the system has an economizer, it requires a motorized OA damper.",
               "For 5 Zone PVAV: Min OA damper schedule is already set to OfficeMedium MinOA_MotorizedDamper_Sched, assume this includes correct motorized OA damper control.",
               "For Core_bottom ZN: DCV is not required since the occupant density is 5 people/1000 ft2, but the minimum occupant density is 40 people/1000 ft2.",
               "For Perimeter_bot_ZN_1 ZN: DCV is not required since the occupant density is 5 people/1000 ft2, but the minimum occupant density is 40 people/1000 ft2.",
               "For Perimeter_bot_ZN_2 ZN: DCV is not required since the occupant density is 5 people/1000 ft2, but the minimum occupant density is 40 people/1000 ft2.",
               "For Perimeter_bot_ZN_3 ZN: DCV is not required since the occupant density is 5 people/1000 ft2, but the minimum occupant density is 40 people/1000 ft2.",
               "For Perimeter_bot_ZN_4 ZN: DCV is not required since the occupant density is 5 people/1000 ft2, but the minimum occupant density is 40 people/1000 ft2.",
               "For 5 Zone PVAV: Optimum start is required since design flow rate of 12611 cfm exceeds the limit of 10000 cfm.",
               "For 5 Zone PVAV: Optimum start control enabled.",
               "For 5 Zone PVAV 1, ERV not required based on 13% OA flow, design supply air flow of 11366cfm, and climate zone ASHRAE 169-2006-3B.",
               "For 5 Zone PVAV 1 Fan: Part load fan power control is required for 16.5 HP fan.",
               "For 5 Zone PVAV 1 Fan: Set fan curve coefficients to reflect control type of 'Multi Zone VAV with VSD and SP Setpoint Reset'.",
               "For 5 Zone PVAV 1: DCV is not required since the system has an economizer, but the min oa flow is 0 cfm, less than the minimum of 1200 cfm for systems with an economizer.",
               "For 5 Zone PVAV 1: Supply air temperature reset is required.",
               "For 5 Zone PVAV 1: Supply air temperature reset was enabled using a SPM Warmest with a min SAT of 55F and a max SAT of 60F.",
               "For 5 Zone PVAV 1: Availability schedule is already set to OfficeMedium HVACOperationSchd.  Will assume this includes unoccupied shut down; no changes will be made.",
               "For 5 Zone PVAV 1: Because the system has an economizer, it requires a motorized OA damper.",
               "For 5 Zone PVAV 1: Min OA damper schedule is already set to OfficeMedium MinOA_MotorizedDamper_Sched, assume this includes correct motorized OA damper control.",
               "For Core_mid ZN: DCV is not required since the occupant density is 5 people/1000 ft2, but the minimum occupant density is 40 people/1000 ft2.",
               "For Perimeter_mid_ZN_1 ZN: DCV is not required since the occupant density is 5 people/1000 ft2, but the minimum occupant density is 40 people/1000 ft2.",
               "For Perimeter_mid_ZN_2 ZN: DCV is not required since the occupant density is 5 people/1000 ft2, but the minimum occupant density is 40 people/1000 ft2.",
               "For Perimeter_mid_ZN_3 ZN: DCV is not required since the occupant density is 5 people/1000 ft2, but the minimum occupant density is 40 people/1000 ft2.",
               "For Perimeter_mid_ZN_4 ZN: DCV is not required since the occupant density is 5 people/1000 ft2, but the minimum occupant density is 40 people/1000 ft2.",
               "For 5 Zone PVAV 1: Optimum start is required since design flow rate of 11366 cfm exceeds the limit of 10000 cfm.",
               "For 5 Zone PVAV 1: Optimum start control enabled.",
               "For 5 Zone PVAV 2, ERV not required based on 12% OA flow, design supply air flow of 12278cfm, and climate zone ASHRAE 169-2006-3B.",
               "For 5 Zone PVAV 2 Fan: Part load fan power control is required for 17.9 HP fan.",
               "For 5 Zone PVAV 2 Fan: Set fan curve coefficients to reflect control type of 'Multi Zone VAV with VSD and SP Setpoint Reset'.",
               "For 5 Zone PVAV 2: DCV is not required since the system has an economizer, but the min oa flow is 0 cfm, less than the minimum of 1200 cfm for systems with an economizer.",
               "For 5 Zone PVAV 2: Supply air temperature reset is required.",
               "For 5 Zone PVAV 2: Supply air temperature reset was enabled using a SPM Warmest with a min SAT of 55F and a max SAT of 60F.",
               "For 5 Zone PVAV 2: Availability schedule is already set to OfficeMedium HVACOperationSchd.  Will assume this includes unoccupied shut down; no changes will be made.",
               "For 5 Zone PVAV 2: Because the system has an economizer, it requires a motorized OA damper.",
               "For 5 Zone PVAV 2: Min OA damper schedule is already set to OfficeMedium MinOA_MotorizedDamper_Sched, assume this includes correct motorized OA damper control.",
               "For Core_top ZN: DCV is not required since the occupant density is 5 people/1000 ft2, but the minimum occupant density is 40 people/1000 ft2.",
               "For Perimeter_top_ZN_1 ZN: DCV is not required since the occupant density is 5 people/1000 ft2, but the minimum occupant density is 40 people/1000 ft2.",
               "For Perimeter_top_ZN_2 ZN: DCV is not required since the occupant density is 5 people/1000 ft2, but the minimum occupant density is 40 people/1000 ft2.",
               "For Perimeter_top_ZN_3 ZN: DCV is not required since the occupant density is 5 people/1000 ft2, but the minimum occupant density is 40 people/1000 ft2.",
               "For Perimeter_top_ZN_4 ZN: DCV is not required since the occupant density is 5 people/1000 ft2, but the minimum occupant density is 40 people/1000 ft2.",
               "For 5 Zone PVAV 2: Optimum start is required since design flow rate of 12278 cfm exceeds the limit of 10000 cfm.",
               "For 5 Zone PVAV 2: Optimum start control enabled.",
               "For 5 Zone PVAV 1 Fan: motor nameplate = 20HP, motor eff = 93.0%.",
               "For 5 Zone PVAV 2 Fan: motor nameplate = 20HP, motor eff = 93.0%.",
               "For 5 Zone PVAV Fan: motor nameplate = 20HP, motor eff = 93.0%.",
               "For Main Service Water Loop Circulator Pump: brake hp = 0.0HP, motor nameplate = 1.0HP, motor eff = 85.5%.",
               "For 90.1-2010: 5 Zone PVAV 1 2spd DX Clg Coil: AirCooled All Other Single Package Capacity = 303kBtu/hr; EER = 9.8",
               "For 90.1-2010: 5 Zone PVAV 2 2spd DX Clg Coil: AirCooled All Other Single Package Capacity = 327kBtu/hr; EER = 9.8",
               "For 90.1-2010: 5 Zone PVAV 2spd DX Clg Coil: AirCooled All Other Single Package Capacity = 336kBtu/hr; EER = 9.8",
               "For 90.1-2010: 100gal Natural Gas Water Heater - 100kBtu/hr 0.808 Therm Eff; thermal efficiency = 0.808, skin-loss UA = 15Btu/hr",
               "Finished applying HVAC efficiency standards.",
               "Started adding daylighting controls.",
               "For Core_bottom, daylighting control not applicable because no exterior fenestration is present.",
               "For Core_mid, daylighting control not applicable because no exterior fenestration is present.",
               "For Core_top, daylighting control not applicable because no exterior fenestration is present.",
               "For FirstFloor_Plenum, daylighting control not applicable because no exterior fenestration is present.",
               "For MidFloor_Plenum, daylighting control not applicable because no exterior fenestration is present.",
               "For Perimeter_bot_ZN_1: illuminance setpoint = 500.0 Lux",
               "For Perimeter_bot_ZN_1: assuming only 68% of the primary sidelit area is daylightable based on typical design practice.",
               "For Perimeter_bot_ZN_1: assuming only 32% of the secondary sidelit area is daylightable based on typical design practice.",
               "For Perimeter_bot_ZN_1: sensor 1 controls 36% of the zone lighting.",
               "For Perimeter_bot_ZN_2: illuminance setpoint = 500.0 Lux",
               "For Perimeter_bot_ZN_2: assuming only 68% of the primary sidelit area is daylightable based on typical design practice.",
               "For Perimeter_bot_ZN_2: assuming only 32% of the secondary sidelit area is daylightable based on typical design practice.",
               "For Perimeter_bot_ZN_2: sensor 1 controls 37% of the zone lighting.",
               "For Perimeter_bot_ZN_3: illuminance setpoint = 500.0 Lux",
               "For Perimeter_bot_ZN_3: assuming only 68% of the primary sidelit area is daylightable based on typical design practice.",
               "For Perimeter_bot_ZN_3: assuming only 32% of the secondary sidelit area is daylightable based on typical design practice.",
               "For Perimeter_bot_ZN_3: sensor 1 controls 36% of the zone lighting.",
               "For Perimeter_bot_ZN_4: illuminance setpoint = 500.0 Lux",
               "For Perimeter_bot_ZN_4: assuming only 68% of the primary sidelit area is daylightable based on typical design practice.",
               "For Perimeter_bot_ZN_4: assuming only 32% of the secondary sidelit area is daylightable based on typical design practice.",
               "For Perimeter_bot_ZN_4: sensor 1 controls 37% of the zone lighting.",
               "For Perimeter_mid_ZN_1: illuminance setpoint = 500.0 Lux",
               "For Perimeter_mid_ZN_1: assuming only 68% of the primary sidelit area is daylightable based on typical design practice.",
               "For Perimeter_mid_ZN_1: assuming only 32% of the secondary sidelit area is daylightable based on typical design practice.",
               "For Perimeter_mid_ZN_1: sensor 1 controls 36% of the zone lighting.",
               "For Perimeter_mid_ZN_2: illuminance setpoint = 500.0 Lux",
               "For Perimeter_mid_ZN_2: assuming only 68% of the primary sidelit area is daylightable based on typical design practice.",
               "For Perimeter_mid_ZN_2: assuming only 32% of the secondary sidelit area is daylightable based on typical design practice.",
               "For Perimeter_mid_ZN_2: sensor 1 controls 37% of the zone lighting.",
               "For Perimeter_mid_ZN_3: illuminance setpoint = 500.0 Lux",
               "For Perimeter_mid_ZN_3: assuming only 68% of the primary sidelit area is daylightable based on typical design practice.",
               "For Perimeter_mid_ZN_3: assuming only 32% of the secondary sidelit area is daylightable based on typical design practice.",
               "For Perimeter_mid_ZN_3: sensor 1 controls 36% of the zone lighting.",
               "For Perimeter_mid_ZN_4: illuminance setpoint = 500.0 Lux",
               "For Perimeter_mid_ZN_4: assuming only 68% of the primary sidelit area is daylightable based on typical design practice.",
               "For Perimeter_mid_ZN_4: assuming only 32% of the secondary sidelit area is daylightable based on typical design practice.",
               "For Perimeter_mid_ZN_4: sensor 1 controls 37% of the zone lighting.",
               "For Perimeter_top_ZN_1: illuminance setpoint = 500.0 Lux",
               "For Perimeter_top_ZN_1: assuming only 68% of the primary sidelit area is daylightable based on typical design practice.",
               "For Perimeter_top_ZN_1: assuming only 32% of the secondary sidelit area is daylightable based on typical design practice.",
               "For Perimeter_top_ZN_1: sensor 1 controls 36% of the zone lighting.",
               "For Perimeter_top_ZN_2: illuminance setpoint = 500.0 Lux",
               "For Perimeter_top_ZN_2: assuming only 68% of the primary sidelit area is daylightable based on typical design practice.",
               "For Perimeter_top_ZN_2: assuming only 32% of the secondary sidelit area is daylightable based on typical design practice.",
               "For Perimeter_top_ZN_2: sensor 1 controls 37% of the zone lighting.",
               "For Perimeter_top_ZN_3: illuminance setpoint = 500.0 Lux",
               "For Perimeter_top_ZN_3: assuming only 68% of the primary sidelit area is daylightable based on typical design practice.",
               "For Perimeter_top_ZN_3: assuming only 32% of the secondary sidelit area is daylightable based on typical design practice.",
               "For Perimeter_top_ZN_3: sensor 1 controls 36% of the zone lighting.",
               "For Perimeter_top_ZN_4: illuminance setpoint = 500.0 Lux",
               "For Perimeter_top_ZN_4: assuming only 68% of the primary sidelit area is daylightable based on typical design practice.",
               "For Perimeter_top_ZN_4: assuming only 32% of the secondary sidelit area is daylightable based on typical design practice.",
               "For Perimeter_top_ZN_4: sensor 1 controls 37% of the zone lighting.",
               "For TopFloor_Plenum, daylighting control not applicable because no exterior fenestration is present.",
               "Finished adding daylighting controls.",
               "Adjusting daylight sensor positions and fractions",
               "For Perimeter_top_ZN_2 ZN: Adjusting primary daylight sensor to control 0.3835 of the lighting.",
               "For Perimeter_bot_ZN_4 ZN: Adjusting primary daylight sensor to control 0.3835 of the lighting.",
               "For Perimeter_top_ZN_4 ZN: Adjusting primary daylight sensor to control 0.3835 of the lighting.",
               "For Perimeter_mid_ZN_3 ZN: Adjusting primary daylight sensor to control 0.3835 of the lighting.",
               "For Perimeter_mid_ZN_2 ZN: Adjusting primary daylight sensor to control 0.3835 of the lighting.",
               "For Perimeter_bot_ZN_3 ZN: Adjusting primary daylight sensor to control 0.3835 of the lighting.",
               "For Perimeter_mid_ZN_4 ZN: Adjusting primary daylight sensor to control 0.3835 of the lighting.",
               "For Perimeter_bot_ZN_2 ZN: Adjusting primary daylight sensor to control 0.3835 of the lighting.",
               "For Perimeter_top_ZN_3 ZN: Adjusting primary daylight sensor to control 0.3835 of the lighting.",
               "For Perimeter_top_ZN_1 ZN: Adjusting primary daylight sensor to control 0.3835 of the lighting.",
               "For Perimeter_bot_ZN_1 ZN: Adjusting primary daylight sensor to control 0.3835 of the lighting.",
               "For Perimeter_mid_ZN_1 ZN: Adjusting primary daylight sensor to control 0.3835 of the lighting.",
               "Total Time = 14sec."
            ],
            "step_result" : "Success",
            "step_values" : [
               {
                  "name" : "building_type",
                  "value" : "MediumOffice"
               },
               {
                  "name" : "template",
                  "value" : "90.1-2010"
               },
               {
                  "name" : "climate_zone",
                  "value" : "ASHRAE 169-2006-3B"
               },
               {
                  "name" : "epw_file",
                  "value" : "Not Applicable"
               }
            ],
            "step_warnings" : [
               "[openstudio.standards.ConstructionBase] Can only set the u-value of opaque constructions or simple glazing. U 0.62 SHGC 0.25 Dbl Ref-C-H Clr 6mm/6mm Air is not opaque or simple glazing.",
               "[openstudio.standards.ConstructionBase] Can only set the u-value of opaque constructions or simple glazing. U 0.88 SHGC 0.16 Sgl Ref-A-L Clr 6mm is not opaque or simple glazing.",
               "[openstudio.standards.ConstructionBase] Requested U-value of 1.45 for Typical Overhead Door is too low given the other materials in the construction; insulation layer will not be modified.",
               "[openstudio.model.Model] In model_add_swh_loop, number_water_heaters = 1",
               "[openstudio.model.Model] In model_add_water_heater, number_water_heaters = 1",
               "[openstudio.EpwFile] Successive data points (2004-Jan-31 to 2001-Feb-01, ending on line 753) are greater than 1 day apart in EPW file '/Users/ryin/github/task8-parametric-runs/osw_output/run/000_CreateDOEPrototypeBuilding/extracted_files/weather/USA_TX_El.Paso.Intl.AP.722700_TMY3.epw'. Data will be treated as typical (TMY)"
            ]
         }
      },
      {
         "arguments" : {
            "timestep" : "4"
         },
         "measure_dir_name" : "SetTimestep",
         "result" : {
            "completed_at" : "20191120T183234Z",
            "measure_class_name" : "SetTimeStep",
            "measure_display_name" : "SetTimeStep",
            "measure_name" : "set_time_step",
            "measure_taxonomy" : "Reporting.QAQC",
            "measure_type" : "ModelMeasure",
            "measure_uid" : "f6ee716f-d01a-488a-90d9-29a4cad69e62",
            "measure_version_id" : "065d3bcd-d38f-4860-9ae5-69ff3b8cc705",
            "measure_version_modified" : "20190731T002000Z",
            "measure_xml_checksum" : "17C66553",
            "started_at" : "20191120T183234Z",
            "stderr" : "",
            "stdout" : "",
            "step_errors" : [],
            "step_files" : [],
            "step_info" : [],
            "step_result" : "Success",
            "step_values" : [
               {
                  "name" : "timestep",
                  "value" : 4
               }
            ],
            "step_warnings" : [
               "The model started with timestep of 6.",
               "The model finished with timestep of 4."
            ]
         }
      },
      {
         "arguments" : {
            "cooling_adjustment" : -2,
            "end_hour" : "12",
            "heating_adjustment" : 0,
            "start_hour" : 6
         },
         "measure_dir_name" : "ChangeHeatingAndCoolingSetpoint",
         "result" : {
            "completed_at" : "20191120T183234Z",
            "measure_class_name" : "ChangeHeatingAndCoolingSetpoint",
            "measure_display_name" : "ChangeHeatingAndCoolingSetpoint",
            "measure_name" : "change_heating_and_cooling_setpoint",
            "measure_taxonomy" : "HVAC.HVAC Controls",
            "measure_type" : "ModelMeasure",
            "measure_uid" : "c2e80e35-0adf-4fa4-aa16-a8353a1f45ce",
            "measure_version_id" : "71578a82-9b43-4f98-8de2-8f9fe549c1ad",
            "measure_version_modified" : "20190807T233047Z",
            "measure_xml_checksum" : "5FF23FE2",
            "started_at" : "20191120T183234Z",
            "stderr" : "",
            "stdout" : "",
            "step_errors" : [],
            "step_files" : [],
            "step_final_condition" : "Final cooling setpoints used in the model range  Final heating setpoints used in the model range.",
            "step_info" : [],
            "step_result" : "Success",
            "step_values" : [
               {
                  "name" : "cooling_adjustment",
                  "value" : -2
               },
               {
                  "name" : "heating_adjustment",
                  "value" : 0
               },
               {
                  "name" : "start_hour",
                  "value" : 6
               },
               {
                  "name" : "start_minute",
                  "value" : 0
               },
               {
                  "name" : "end_hour",
                  "value" : 12
               },
               {
                  "name" : "end_minute",
                  "value" : 0
               },
               {
                  "name" : "alter_design_days",
                  "value" : false
               }
            ],
            "step_warnings" : [
               "Lowering the cooling setpoint will increase energy use.",
               "Thermostat 'Plenum Thermostat 3' doesn't have a cooling setpoint schedule",
               "Thermostat 'Plenum Thermostat 3' doesn't have a heating setpoint schedule.",
               "Thermostat 'Plenum Thermostat 1' doesn't have a cooling setpoint schedule",
               "Thermostat 'Plenum Thermostat 1' doesn't have a heating setpoint schedule.",
               "Thermostat 'Plenum Thermostat 2' doesn't have a cooling setpoint schedule",
               "Thermostat 'Plenum Thermostat 2' doesn't have a heating setpoint schedule.",
               "Thermostat 'Plenum Thermostat' doesn't have a cooling setpoint schedule",
               "Thermostat 'Plenum Thermostat' doesn't have a heating setpoint schedule.",
               "Thermal zone 'TopFloor_Plenum ZN' has a thermostat but does not appear to be conditioned.",
               "Thermal zone 'FirstFloor_Plenum ZN' has a thermostat but does not appear to be conditioned.",
               "Thermal zone 'MidFloor_Plenum ZN' has a thermostat but does not appear to be conditioned."
            ]
         }
      },
      {
         "arguments" : {
            "cooling_adjustment" : "4",
            "end_hour" : "18",
            "heating_adjustment" : 0,
            "start_hour" : "12"
         },
         "measure_dir_name" : "ChangeHeatingAndCoolingSetpoint",
         "result" : {
            "completed_at" : "20191120T183234Z",
            "measure_class_name" : "ChangeHeatingAndCoolingSetpoint",
            "measure_display_name" : "ChangeHeatingAndCoolingSetpoint",
            "measure_name" : "change_heating_and_cooling_setpoint",
            "measure_taxonomy" : "HVAC.HVAC Controls",
            "measure_type" : "ModelMeasure",
            "measure_uid" : "c2e80e35-0adf-4fa4-aa16-a8353a1f45ce",
            "measure_version_id" : "71578a82-9b43-4f98-8de2-8f9fe549c1ad",
            "measure_version_modified" : "20190807T233047Z",
            "measure_xml_checksum" : "5FF23FE2",
            "started_at" : "20191120T183234Z",
            "stderr" : "",
            "stdout" : "",
            "step_errors" : [],
            "step_files" : [],
            "step_final_condition" : "Final cooling setpoints used in the model range  Final heating setpoints used in the model range.",
            "step_info" : [],
            "step_result" : "Success",
            "step_values" : [
               {
                  "name" : "cooling_adjustment",
                  "value" : 4
               },
               {
                  "name" : "heating_adjustment",
                  "value" : 0
               },
               {
                  "name" : "start_hour",
                  "value" : 12
               },
               {
                  "name" : "start_minute",
                  "value" : 0
               },
               {
                  "name" : "end_hour",
                  "value" : 18
               },
               {
                  "name" : "end_minute",
                  "value" : 0
               },
               {
                  "name" : "alter_design_days",
                  "value" : false
               }
            ],
            "step_warnings" : [
               "Thermostat 'Plenum Thermostat 3' doesn't have a cooling setpoint schedule",
               "Thermostat 'Plenum Thermostat 3' doesn't have a heating setpoint schedule.",
               "Thermostat 'Plenum Thermostat 1' doesn't have a cooling setpoint schedule",
               "Thermostat 'Plenum Thermostat 1' doesn't have a heating setpoint schedule.",
               "Thermostat 'Plenum Thermostat 2' doesn't have a cooling setpoint schedule",
               "Thermostat 'Plenum Thermostat 2' doesn't have a heating setpoint schedule.",
               "Thermostat 'Plenum Thermostat' doesn't have a cooling setpoint schedule",
               "Thermostat 'Plenum Thermostat' doesn't have a heating setpoint schedule.",
               "Thermal zone 'TopFloor_Plenum ZN' has a thermostat but does not appear to be conditioned.",
               "Thermal zone 'FirstFloor_Plenum ZN' has a thermostat but does not appear to be conditioned.",
               "Thermal zone 'MidFloor_Plenum ZN' has a thermostat but does not appear to be conditioned."
            ]
         }
      }
   ],
   "updated_at" : "20191120T183323Z",
   "weather_file" : null
}
