Program Version,EnergyPlus, Version 9.1.0-08d2e308bb, YMD=2019.11.20 10:32
! This file shows details about the branches, nodes, and other
! elements of the flow connections.
! This file is intended for use in "debugging" potential problems
! that may also be detected by the program, but may be more easily
! identified by "eye".
! This file is also intended to support software which draws a
! schematic diagram of the HVAC system.
! ===============================================================
! #Nodes,<Number of Unique Nodes>
 #Nodes,155
! <Node>,<NodeNumber>,<Node Name>,<Node Fluid Type>,<# Times Node Referenced After Definition>
 Node,1,NODE 41,Air,4
 Node,2,NODE 42,Air,2
 Node,3,NODE 66,Air,4
 Node,4,NODE 67,Air,2
 Node,5,NODE 91,Air,4
 Node,6,NODE 92,Air,2
 Node,7,NODE 23,Air,4
 Node,8,NODE 29,Air,2
 Node,9,NODE 31,Air,4
 Node,10,NODE 33,Air,2
 Node,11,NODE 35,Air,4
 Node,12,NODE 36,Air,2
 Node,13,NODE 38,Air,4
 Node,14,NODE 39,Air,2
 Node,15,NODE 48,Air,4
 Node,16,NODE 54,Air,2
 Node,17,NODE 56,Air,4
 Node,18,NODE 58,Air,2
 Node,19,NODE 60,Air,4
 Node,20,NODE 61,Air,2
 Node,21,NODE 63,Air,4
 Node,22,NODE 64,Air,2
 Node,23,NODE 73,Air,4
 Node,24,NODE 79,Air,2
 Node,25,NODE 81,Air,4
 Node,26,NODE 83,Air,2
 Node,27,NODE 85,Air,4
 Node,28,NODE 86,Air,2
 Node,29,NODE 88,Air,4
 Node,30,NODE 89,Air,2
 Node,31,NODE 20,Air,10
 Node,32,NODE 21,Air,3
 Node,33,NODE 45,Air,10
 Node,34,NODE 46,Air,3
 Node,35,NODE 70,Air,10
 Node,36,NODE 71,Air,3
 Node,37,NODE 19,Air,3
 Node,38,NODE 28,Air,6
 Node,39,NODE 25,Air,6
 Node,40,NODE 24,Air,8
 Node,41,NODE 44,Air,3
 Node,42,NODE 53,Air,6
 Node,43,NODE 50,Air,6
 Node,44,NODE 49,Air,8
 Node,45,NODE 69,Air,3
 Node,46,NODE 78,Air,6
 Node,47,NODE 75,Air,6
 Node,48,NODE 74,Air,8
 Node,49,NODE 94,Water,2
 Node,50,NODE 100,Water,1
 Node,51,NODE 96,Water,1
 Node,52,NODE 101,Water,1
 Node,53,NODE 102,Water,1
 Node,54,NODE 103,Water,1
 Node,55,NODE 105,Water,1
 Node,56,NODE 95,Water,4
 Node,57,NODE 97,Water,2
 Node,58,MAIN SERVICE WATER LOOP DEMAND INLET PIPE NODE,Water,1
 Node,59,NODE 99,Water,1
 Node,60,NODE 104,Water,1
 Node,61,NODE 107,Water,1
 Node,62,NODE 108,Water,1
 Node,63,NODE 109,Water,1
 Node,64,NODE 110,Water,1
 Node,65,NODE 111,Water,1
 Node,66,NODE 112,Water,1
 Node,67,NODE 113,Water,1
 Node,68,NODE 114,Water,1
 Node,69,NODE 115,Water,1
 Node,70,NODE 116,Water,1
 Node,71,NODE 117,Water,1
 Node,72,NODE 118,Water,1
 Node,73,NODE 119,Water,1
 Node,74,NODE 120,Water,1
 Node,75,NODE 121,Water,1
 Node,76,NODE 122,Water,1
 Node,77,NODE 123,Water,1
 Node,78,NODE 124,Water,1
 Node,79,NODE 125,Water,1
 Node,80,NODE 126,Water,1
 Node,81,NODE 127,Water,1
 Node,82,NODE 128,Water,1
 Node,83,NODE 129,Water,1
 Node,84,NODE 130,Water,1
 Node,85,NODE 131,Water,1
 Node,86,NODE 132,Water,1
 Node,87,NODE 133,Water,1
 Node,88,NODE 134,Water,1
 Node,89,NODE 135,Water,1
 Node,90,NODE 136,Water,1
 Node,91,MAIN SERVICE WATER LOOP DEMAND BYPASS PIPE INLET NODE,Water,1
 Node,92,MAIN SERVICE WATER LOOP DEMAND BYPASS PIPE OUTLET NODE,Water,1
 Node,93,NODE 106,Water,1
 Node,94,NODE 98,Water,2
 Node,95,NODE 1,Air,0
 Node,96,NODE 2,Air,0
 Node,97,NODE 3,Air,0
 Node,98,NODE 6,Air,0
 Node,99,NODE 7,Air,0
 Node,100,NODE 8,Air,0
 Node,101,NODE 9,Air,0
 Node,102,NODE 10,Air,0
 Node,103,NODE 11,Air,0
 Node,104,NODE 12,Air,0
 Node,105,NODE 13,Air,0
 Node,106,NODE 14,Air,0
 Node,107,NODE 15,Air,0
 Node,108,NODE 16,Air,0
 Node,109,NODE 17,Air,0
 Node,110,NODE 22,Air,2
 Node,111,NODE 47,Air,2
 Node,112,NODE 72,Air,2
 Node,113,NODE 26,Air,2
 Node,114,NODE 51,Air,2
 Node,115,NODE 76,Air,2
 Node,116,MODEL OUTDOOR AIR NODE,Air,0
 Node,117,NODE 30,Air,1
 Node,118,NODE 34,Air,1
 Node,119,NODE 37,Air,1
 Node,120,NODE 40,Air,1
 Node,121,NODE 43,Air,1
 Node,122,NODE 55,Air,1
 Node,123,NODE 59,Air,1
 Node,124,NODE 62,Air,1
 Node,125,NODE 65,Air,1
 Node,126,NODE 68,Air,1
 Node,127,NODE 80,Air,1
 Node,128,NODE 84,Air,1
 Node,129,NODE 87,Air,1
 Node,130,NODE 90,Air,1
 Node,131,NODE 93,Air,1
 Node,132,CORE_BOTTOM ZN VAV TERMINAL DAMPER OUTLET,Air,1
 Node,133,CORE_MID ZN VAV TERMINAL DAMPER OUTLET,Air,1
 Node,134,CORE_TOP ZN VAV TERMINAL DAMPER OUTLET,Air,1
 Node,135,PERIMETER_BOT_ZN_1 ZN VAV TERMINAL DAMPER OUTLET,Air,1
 Node,136,PERIMETER_BOT_ZN_2 ZN VAV TERMINAL DAMPER OUTLET,Air,1
 Node,137,PERIMETER_BOT_ZN_3 ZN VAV TERMINAL DAMPER OUTLET,Air,1
 Node,138,PERIMETER_BOT_ZN_4 ZN VAV TERMINAL DAMPER OUTLET,Air,1
 Node,139,PERIMETER_MID_ZN_1 ZN VAV TERMINAL DAMPER OUTLET,Air,1
 Node,140,PERIMETER_MID_ZN_2 ZN VAV TERMINAL DAMPER OUTLET,Air,1
 Node,141,PERIMETER_MID_ZN_3 ZN VAV TERMINAL DAMPER OUTLET,Air,1
 Node,142,PERIMETER_MID_ZN_4 ZN VAV TERMINAL DAMPER OUTLET,Air,1
 Node,143,PERIMETER_TOP_ZN_1 ZN VAV TERMINAL DAMPER OUTLET,Air,1
 Node,144,PERIMETER_TOP_ZN_2 ZN VAV TERMINAL DAMPER OUTLET,Air,1
 Node,145,PERIMETER_TOP_ZN_3 ZN VAV TERMINAL DAMPER OUTLET,Air,1
 Node,146,PERIMETER_TOP_ZN_4 ZN VAV TERMINAL DAMPER OUTLET,Air,1
 Node,147,NODE 4,Air,0
 Node,148,NODE 32,Air,1
 Node,149,NODE 5,Air,0
 Node,150,NODE 57,Air,1
 Node,151,NODE 18,Air,0
 Node,152,NODE 82,Air,1
 Node,153,NODE 27,Air,1
 Node,154,NODE 52,Air,1
 Node,155,NODE 77,Air,1
! ===============================================================
! Suspicious nodes have 0 references.  It is normal for some nodes, however.
! Listing nodes with 0 references (culled from previous list):
! <Suspicious Node>,<NodeNumber>,<Node Name>,<Node Fluid Type>,<# Times Node Referenced After Definition>
 Suspicious Node,95,NODE 1,Air,0
 Suspicious Node,96,NODE 2,Air,0
 Suspicious Node,97,NODE 3,Air,0
 Suspicious Node,98,NODE 6,Air,0
 Suspicious Node,99,NODE 7,Air,0
 Suspicious Node,100,NODE 8,Air,0
 Suspicious Node,101,NODE 9,Air,0
 Suspicious Node,102,NODE 10,Air,0
 Suspicious Node,103,NODE 11,Air,0
 Suspicious Node,104,NODE 12,Air,0
 Suspicious Node,105,NODE 13,Air,0
 Suspicious Node,106,NODE 14,Air,0
 Suspicious Node,107,NODE 15,Air,0
 Suspicious Node,108,NODE 16,Air,0
 Suspicious Node,109,NODE 17,Air,0
 Suspicious Node,116,MODEL OUTDOOR AIR NODE,Air,0
 Suspicious Node,147,NODE 4,Air,0
 Suspicious Node,149,NODE 5,Air,0
 Suspicious Node,151,NODE 18,Air,0
! ===============================================================
! <#Branch Lists>,<Number of Branch Lists>
 #Branch Lists,5
! <Branch List>,<Branch List Count>,<Branch List Name>,<Loop Name>,<Loop Type>,<Number of Branches>
! <Branch>,<Branch Count>,<Branch Name>,<Loop Name>,<Loop Type>,<Branch Inlet Node Name>,<Branch Outlet Node Name>
 Branch List,1,5 ZONE PVAV SUPPLY BRANCHES,5 ZONE PVAV,Air,1
   Branch,1,5 ZONE PVAV MAIN BRANCH,5 ZONE PVAV,Air,NODE 19,NODE 20
 Branch List,2,5 ZONE PVAV 1 SUPPLY BRANCHES,5 ZONE PVAV 1,Air,1
   Branch,1,5 ZONE PVAV 1 MAIN BRANCH,5 ZONE PVAV 1,Air,NODE 44,NODE 45
 Branch List,3,5 ZONE PVAV 2 SUPPLY BRANCHES,5 ZONE PVAV 2,Air,1
   Branch,1,5 ZONE PVAV 2 MAIN BRANCH,5 ZONE PVAV 2,Air,NODE 69,NODE 70
 Branch List,4,MAIN SERVICE WATER LOOP SUPPLY BRANCHES,MAIN SERVICE WATER LOOP,Plant Supply,4
   Branch,1,MAIN SERVICE WATER LOOP SUPPLY INLET BRANCH,MAIN SERVICE WATER LOOP,Plant Supply,NODE 94,NODE 100
   Branch,2,MAIN SERVICE WATER LOOP SUPPLY BRANCH 1,MAIN SERVICE WATER LOOP,Plant Supply,NODE 96,NODE 101
   Branch,3,MAIN SERVICE WATER LOOP SUPPLY BRANCH 2,MAIN SERVICE WATER LOOP,Plant Supply,NODE 102,NODE 103
   Branch,4,MAIN SERVICE WATER LOOP SUPPLY OUTLET BRANCH,MAIN SERVICE WATER LOOP,Plant Supply,NODE 105,NODE 95
 Branch List,5,MAIN SERVICE WATER LOOP DEMAND BRANCHES,MAIN SERVICE WATER LOOP,Plant Demand,19
   Branch,1,MAIN SERVICE WATER LOOP DEMAND INLET BRANCH,MAIN SERVICE WATER LOOP,Plant Demand,NODE 97,MAIN SERVICE WATER LOOP DEMAND INLET PIPE NODE
   Branch,2,MAIN SERVICE WATER LOOP DEMAND BRANCH 1,MAIN SERVICE WATER LOOP,Plant Demand,NODE 99,NODE 104
   Branch,3,MAIN SERVICE WATER LOOP DEMAND BRANCH 2,MAIN SERVICE WATER LOOP,Plant Demand,NODE 107,NODE 108
   Branch,4,MAIN SERVICE WATER LOOP DEMAND BRANCH 3,MAIN SERVICE WATER LOOP,Plant Demand,NODE 109,NODE 110
   Branch,5,MAIN SERVICE WATER LOOP DEMAND BRANCH 4,MAIN SERVICE WATER LOOP,Plant Demand,NODE 111,NODE 112
   Branch,6,MAIN SERVICE WATER LOOP DEMAND BRANCH 5,MAIN SERVICE WATER LOOP,Plant Demand,NODE 113,NODE 114
   Branch,7,MAIN SERVICE WATER LOOP DEMAND BRANCH 6,MAIN SERVICE WATER LOOP,Plant Demand,NODE 115,NODE 116
   Branch,8,MAIN SERVICE WATER LOOP DEMAND BRANCH 7,MAIN SERVICE WATER LOOP,Plant Demand,NODE 117,NODE 118
   Branch,9,MAIN SERVICE WATER LOOP DEMAND BRANCH 8,MAIN SERVICE WATER LOOP,Plant Demand,NODE 119,NODE 120
   Branch,10,MAIN SERVICE WATER LOOP DEMAND BRANCH 9,MAIN SERVICE WATER LOOP,Plant Demand,NODE 121,NODE 122
   Branch,11,MAIN SERVICE WATER LOOP DEMAND BRANCH 10,MAIN SERVICE WATER LOOP,Plant Demand,NODE 123,NODE 124
   Branch,12,MAIN SERVICE WATER LOOP DEMAND BRANCH 11,MAIN SERVICE WATER LOOP,Plant Demand,NODE 125,NODE 126
   Branch,13,MAIN SERVICE WATER LOOP DEMAND BRANCH 12,MAIN SERVICE WATER LOOP,Plant Demand,NODE 127,NODE 128
   Branch,14,MAIN SERVICE WATER LOOP DEMAND BRANCH 13,MAIN SERVICE WATER LOOP,Plant Demand,NODE 129,NODE 130
   Branch,15,MAIN SERVICE WATER LOOP DEMAND BRANCH 14,MAIN SERVICE WATER LOOP,Plant Demand,NODE 131,NODE 132
   Branch,16,MAIN SERVICE WATER LOOP DEMAND BRANCH 15,MAIN SERVICE WATER LOOP,Plant Demand,NODE 133,NODE 134
   Branch,17,MAIN SERVICE WATER LOOP DEMAND BRANCH 16,MAIN SERVICE WATER LOOP,Plant Demand,NODE 135,NODE 136
   Branch,18,MAIN SERVICE WATER LOOP DEMAND BYPASS BRANCH,MAIN SERVICE WATER LOOP,Plant Demand,MAIN SERVICE WATER LOOP DEMAND BYPASS PIPE INLET NODE,MAIN SERVICE WATER LOOP DEMAND BYPASS PIPE OUTLET NODE
   Branch,19,MAIN SERVICE WATER LOOP DEMAND OUTLET BRANCH,MAIN SERVICE WATER LOOP,Plant Demand,NODE 106,NODE 98
! ===============================================================
! <#Supply Air Paths>,<Number of Supply Air Paths>
 #Supply Air Paths,3
! <Supply Air Path>,<Supply Air Path Count>,<Supply Air Path Name>,<AirLoopHVAC Name>
! <#Components on Supply Air Path>,<Number of Components>
! <Supply Air Path Component>,<Component Count>,<Component Type>,<Component Name>,<AirLoopHVAC Name>
! <#Outlet Nodes on Supply Air Path Component>,<Number of Nodes>
! <Supply Air Path Component Nodes>,<Node Count>,<Component Type>,<Component Name>,<Inlet Node Name>,<Outlet Node Name>,<AirLoopHVAC Name>
 Supply Air Path,1,5 ZONE PVAV NODE 21 SUPPLY PATH,5 ZONE PVAV
   #Components on Supply Air Path,1
   Supply Air Path Component,1,AIRLOOPHVAC:ZONESPLITTER,AIR LOOP HVAC ZONE SPLITTER 1,5 ZONE PVAV
     #Outlet Nodes on Supply Air Path Component,5
     Supply Air Path Component Nodes,1,AIRLOOPHVAC:ZONESPLITTER,AIR LOOP HVAC ZONE SPLITTER 1,NODE 21,NODE 30,5 ZONE PVAV
     Supply Air Path Component Nodes,2,AIRLOOPHVAC:ZONESPLITTER,AIR LOOP HVAC ZONE SPLITTER 1,NODE 21,NODE 34,5 ZONE PVAV
     Supply Air Path Component Nodes,3,AIRLOOPHVAC:ZONESPLITTER,AIR LOOP HVAC ZONE SPLITTER 1,NODE 21,NODE 37,5 ZONE PVAV
     Supply Air Path Component Nodes,4,AIRLOOPHVAC:ZONESPLITTER,AIR LOOP HVAC ZONE SPLITTER 1,NODE 21,NODE 40,5 ZONE PVAV
     Supply Air Path Component Nodes,5,AIRLOOPHVAC:ZONESPLITTER,AIR LOOP HVAC ZONE SPLITTER 1,NODE 21,NODE 43,5 ZONE PVAV
! <#Nodes on Supply Air Path>,<Number of Nodes>
! <Supply Air Path Node>,<Node Type>,<Node Count>,<Node Name>,<AirLoopHVAC Name>
#Nodes on Supply Air Path,6
   Supply Air Path Node,Inlet Node,1,NODE 21,5 ZONE PVAV
   Supply Air Path Node,Outlet Node,2,NODE 30,5 ZONE PVAV
   Supply Air Path Node,Outlet Node,3,NODE 34,5 ZONE PVAV
   Supply Air Path Node,Outlet Node,4,NODE 37,5 ZONE PVAV
   Supply Air Path Node,Outlet Node,5,NODE 40,5 ZONE PVAV
   Supply Air Path Node,Outlet Node,6,NODE 43,5 ZONE PVAV
 Supply Air Path,2,5 ZONE PVAV 1 NODE 46 SUPPLY PATH,5 ZONE PVAV 1
   #Components on Supply Air Path,1
   Supply Air Path Component,1,AIRLOOPHVAC:ZONESPLITTER,AIR LOOP HVAC ZONE SPLITTER 2,5 ZONE PVAV 1
     #Outlet Nodes on Supply Air Path Component,5
     Supply Air Path Component Nodes,1,AIRLOOPHVAC:ZONESPLITTER,AIR LOOP HVAC ZONE SPLITTER 2,NODE 46,NODE 55,5 ZONE PVAV 1
     Supply Air Path Component Nodes,2,AIRLOOPHVAC:ZONESPLITTER,AIR LOOP HVAC ZONE SPLITTER 2,NODE 46,NODE 59,5 ZONE PVAV 1
     Supply Air Path Component Nodes,3,AIRLOOPHVAC:ZONESPLITTER,AIR LOOP HVAC ZONE SPLITTER 2,NODE 46,NODE 62,5 ZONE PVAV 1
     Supply Air Path Component Nodes,4,AIRLOOPHVAC:ZONESPLITTER,AIR LOOP HVAC ZONE SPLITTER 2,NODE 46,NODE 65,5 ZONE PVAV 1
     Supply Air Path Component Nodes,5,AIRLOOPHVAC:ZONESPLITTER,AIR LOOP HVAC ZONE SPLITTER 2,NODE 46,NODE 68,5 ZONE PVAV 1
! <#Nodes on Supply Air Path>,<Number of Nodes>
! <Supply Air Path Node>,<Node Type>,<Node Count>,<Node Name>,<AirLoopHVAC Name>
#Nodes on Supply Air Path,6
   Supply Air Path Node,Inlet Node,1,NODE 46,5 ZONE PVAV 1
   Supply Air Path Node,Outlet Node,2,NODE 55,5 ZONE PVAV 1
   Supply Air Path Node,Outlet Node,3,NODE 59,5 ZONE PVAV 1
   Supply Air Path Node,Outlet Node,4,NODE 62,5 ZONE PVAV 1
   Supply Air Path Node,Outlet Node,5,NODE 65,5 ZONE PVAV 1
   Supply Air Path Node,Outlet Node,6,NODE 68,5 ZONE PVAV 1
 Supply Air Path,3,5 ZONE PVAV 2 NODE 71 SUPPLY PATH,5 ZONE PVAV 2
   #Components on Supply Air Path,1
   Supply Air Path Component,1,AIRLOOPHVAC:ZONESPLITTER,AIR LOOP HVAC ZONE SPLITTER 3,5 ZONE PVAV 2
     #Outlet Nodes on Supply Air Path Component,5
     Supply Air Path Component Nodes,1,AIRLOOPHVAC:ZONESPLITTER,AIR LOOP HVAC ZONE SPLITTER 3,NODE 71,NODE 80,5 ZONE PVAV 2
     Supply Air Path Component Nodes,2,AIRLOOPHVAC:ZONESPLITTER,AIR LOOP HVAC ZONE SPLITTER 3,NODE 71,NODE 84,5 ZONE PVAV 2
     Supply Air Path Component Nodes,3,AIRLOOPHVAC:ZONESPLITTER,AIR LOOP HVAC ZONE SPLITTER 3,NODE 71,NODE 87,5 ZONE PVAV 2
     Supply Air Path Component Nodes,4,AIRLOOPHVAC:ZONESPLITTER,AIR LOOP HVAC ZONE SPLITTER 3,NODE 71,NODE 90,5 ZONE PVAV 2
     Supply Air Path Component Nodes,5,AIRLOOPHVAC:ZONESPLITTER,AIR LOOP HVAC ZONE SPLITTER 3,NODE 71,NODE 93,5 ZONE PVAV 2
! <#Nodes on Supply Air Path>,<Number of Nodes>
! <Supply Air Path Node>,<Node Type>,<Node Count>,<Node Name>,<AirLoopHVAC Name>
#Nodes on Supply Air Path,6
   Supply Air Path Node,Inlet Node,1,NODE 71,5 ZONE PVAV 2
   Supply Air Path Node,Outlet Node,2,NODE 80,5 ZONE PVAV 2
   Supply Air Path Node,Outlet Node,3,NODE 84,5 ZONE PVAV 2
   Supply Air Path Node,Outlet Node,4,NODE 87,5 ZONE PVAV 2
   Supply Air Path Node,Outlet Node,5,NODE 90,5 ZONE PVAV 2
   Supply Air Path Node,Outlet Node,6,NODE 93,5 ZONE PVAV 2
! ===============================================================
! <#Return Air Paths>,<Number of Return Air Paths>
 #Return Air Paths,3
! <Return Air Path>,<Return Air Path Count>,<Return Air Path Name>,<AirLoopHVAC Name>
! <#Components on Return Air Path>,<Number of Components>
! <Return Air Path Component>,<Component Count>,<Component Type>,<Component Name>,<AirLoopHVAC Name>
! <#Inlet Nodes on Return Air Path Component>,<Number of Nodes>
! <Return Air Path Component Nodes>,<Node Count>,<Component Type>,<Component Name>,<Inlet Node Name>,<Outlet Node Name>,<AirLoopHVAC Name>
 Return Air Path,1,5 ZONE PVAV RETURN PATH,5 ZONE PVAV
   #Components on Return Air Path,2
   Return Air Path Component,1,AIRLOOPHVAC:RETURNPLENUM,AIR LOOP HVAC RETURN PLENUM 1,5 ZONE PVAV
   Return Air Path Component,2,AIRLOOPHVAC:ZONEMIXER,AIR LOOP HVAC ZONE MIXER 1,5 ZONE PVAV
     #Inlet Nodes on Return Air Path Component,1
     Return Air Path Component Nodes,1,AIRLOOPHVAC:ZONEMIXER,AIR LOOP HVAC ZONE MIXER 1,NODE 32,NODE 22,5 ZONE PVAV
! <#Nodes on Return Air Path>,<Number of Nodes>
! <Return Air Path Node>,<Node Type>,<Node Count>,<Node Name>,<AirLoopHVAC Name>
   #Nodes on Return Air Path,7
   Return Air Path Node,Outlet Node,1,NODE 22,5 ZONE PVAV
   Return Air Path Node,Inlet Node,2,NODE 32,5 ZONE PVAV
   Return Air Path Node,Inlet Node,3,NODE 29,5 ZONE PVAV
   Return Air Path Node,Inlet Node,4,NODE 33,5 ZONE PVAV
   Return Air Path Node,Inlet Node,5,NODE 36,5 ZONE PVAV
   Return Air Path Node,Inlet Node,6,NODE 39,5 ZONE PVAV
   Return Air Path Node,Inlet Node,7,NODE 42,5 ZONE PVAV
 Return Air Path,2,5 ZONE PVAV 1 RETURN PATH,5 ZONE PVAV 1
   #Components on Return Air Path,2
   Return Air Path Component,1,AIRLOOPHVAC:RETURNPLENUM,AIR LOOP HVAC RETURN PLENUM 2,5 ZONE PVAV 1
   Return Air Path Component,2,AIRLOOPHVAC:ZONEMIXER,AIR LOOP HVAC ZONE MIXER 2,5 ZONE PVAV 1
     #Inlet Nodes on Return Air Path Component,1
     Return Air Path Component Nodes,1,AIRLOOPHVAC:ZONEMIXER,AIR LOOP HVAC ZONE MIXER 2,NODE 57,NODE 47,5 ZONE PVAV 1
! <#Nodes on Return Air Path>,<Number of Nodes>
! <Return Air Path Node>,<Node Type>,<Node Count>,<Node Name>,<AirLoopHVAC Name>
   #Nodes on Return Air Path,7
   Return Air Path Node,Outlet Node,1,NODE 47,5 ZONE PVAV 1
   Return Air Path Node,Inlet Node,2,NODE 57,5 ZONE PVAV 1
   Return Air Path Node,Inlet Node,3,NODE 54,5 ZONE PVAV 1
   Return Air Path Node,Inlet Node,4,NODE 58,5 ZONE PVAV 1
   Return Air Path Node,Inlet Node,5,NODE 61,5 ZONE PVAV 1
   Return Air Path Node,Inlet Node,6,NODE 64,5 ZONE PVAV 1
   Return Air Path Node,Inlet Node,7,NODE 67,5 ZONE PVAV 1
 Return Air Path,3,5 ZONE PVAV 2 RETURN PATH,5 ZONE PVAV 2
   #Components on Return Air Path,2
   Return Air Path Component,1,AIRLOOPHVAC:RETURNPLENUM,AIR LOOP HVAC RETURN PLENUM 3,5 ZONE PVAV 2
   Return Air Path Component,2,AIRLOOPHVAC:ZONEMIXER,AIR LOOP HVAC ZONE MIXER 3,5 ZONE PVAV 2
     #Inlet Nodes on Return Air Path Component,1
     Return Air Path Component Nodes,1,AIRLOOPHVAC:ZONEMIXER,AIR LOOP HVAC ZONE MIXER 3,NODE 82,NODE 72,5 ZONE PVAV 2
! <#Nodes on Return Air Path>,<Number of Nodes>
! <Return Air Path Node>,<Node Type>,<Node Count>,<Node Name>,<AirLoopHVAC Name>
   #Nodes on Return Air Path,7
   Return Air Path Node,Outlet Node,1,NODE 72,5 ZONE PVAV 2
   Return Air Path Node,Inlet Node,2,NODE 82,5 ZONE PVAV 2
   Return Air Path Node,Inlet Node,3,NODE 79,5 ZONE PVAV 2
   Return Air Path Node,Inlet Node,4,NODE 83,5 ZONE PVAV 2
   Return Air Path Node,Inlet Node,5,NODE 86,5 ZONE PVAV 2
   Return Air Path Node,Inlet Node,6,NODE 89,5 ZONE PVAV 2
   Return Air Path Node,Inlet Node,7,NODE 92,5 ZONE PVAV 2
! ===============================================================
! #Outdoor Air Nodes,<Number of Outdoor Air Nodes>
 #Outdoor Air Nodes,4
! <Outdoor Air Node>,<NodeNumber>,<Node Name>
 Outdoor Air Node,113,NODE 26
 Outdoor Air Node,114,NODE 51
 Outdoor Air Node,115,NODE 76
 Outdoor Air Node,116,MODEL OUTDOOR AIR NODE
! ===============================================================
! <#Component Sets>,<Number of Component Sets>
 #Component Sets,71
! <Component Set>,<Component Set Count>,<Parent Object Type>,<Parent Object Name>,<Component Type>,<Component Name>,<Inlet Node ID>,<Outlet Node ID>,<Description>
 Component Set,1,BRANCH,5 ZONE PVAV MAIN BRANCH,AIRLOOPHVAC:OUTDOORAIRSYSTEM,5 ZONE PVAV OA SYSTEM,NODE 19,NODE 28,Air Nodes
 Component Set,2,BRANCH,5 ZONE PVAV MAIN BRANCH,COILSYSTEM:COOLING:DX,5 ZONE PVAV 2SPD DX CLG COIL COILSYSTEM,NODE 28,NODE 25,Air Nodes
 Component Set,3,BRANCH,5 ZONE PVAV MAIN BRANCH,COIL:HEATING:FUEL,5 ZONE PVAV MAIN GAS HTG COIL,NODE 25,NODE 24,Air Nodes
 Component Set,4,BRANCH,5 ZONE PVAV MAIN BRANCH,FAN:VARIABLEVOLUME,5 ZONE PVAV FAN,NODE 24,NODE 20,Air Nodes
 Component Set,5,BRANCH,5 ZONE PVAV 1 MAIN BRANCH,AIRLOOPHVAC:OUTDOORAIRSYSTEM,5 ZONE PVAV 1 OA SYSTEM,NODE 44,NODE 53,Air Nodes
 Component Set,6,BRANCH,5 ZONE PVAV 1 MAIN BRANCH,COILSYSTEM:COOLING:DX,5 ZONE PVAV 1 2SPD DX CLG COIL COILSYSTEM,NODE 53,NODE 50,Air Nodes
 Component Set,7,BRANCH,5 ZONE PVAV 1 MAIN BRANCH,COIL:HEATING:FUEL,5 ZONE PVAV 1 MAIN GAS HTG COIL,NODE 50,NODE 49,Air Nodes
 Component Set,8,BRANCH,5 ZONE PVAV 1 MAIN BRANCH,FAN:VARIABLEVOLUME,5 ZONE PVAV 1 FAN,NODE 49,NODE 45,Air Nodes
 Component Set,9,BRANCH,5 ZONE PVAV 2 MAIN BRANCH,AIRLOOPHVAC:OUTDOORAIRSYSTEM,5 ZONE PVAV 2 OA SYSTEM,NODE 69,NODE 78,Air Nodes
 Component Set,10,BRANCH,5 ZONE PVAV 2 MAIN BRANCH,COILSYSTEM:COOLING:DX,5 ZONE PVAV 2 2SPD DX CLG COIL COILSYSTEM,NODE 78,NODE 75,Air Nodes
 Component Set,11,BRANCH,5 ZONE PVAV 2 MAIN BRANCH,COIL:HEATING:FUEL,5 ZONE PVAV 2 MAIN GAS HTG COIL,NODE 75,NODE 74,Air Nodes
 Component Set,12,BRANCH,5 ZONE PVAV 2 MAIN BRANCH,FAN:VARIABLEVOLUME,5 ZONE PVAV 2 FAN,NODE 74,NODE 70,Air Nodes
 Component Set,13,BRANCH,MAIN SERVICE WATER LOOP SUPPLY INLET BRANCH,PUMP:CONSTANTSPEED,MAIN SERVICE WATER LOOP CIRCULATOR PUMP,NODE 94,NODE 100,Water Nodes
 Component Set,14,BRANCH,MAIN SERVICE WATER LOOP SUPPLY BRANCH 1,WATERHEATER:MIXED,100GAL NATURAL GAS WATER HEATER - 100KBTU/HR,NODE 96,NODE 101,Use Side Water Nodes
 Component Set,15,BRANCH,MAIN SERVICE WATER LOOP SUPPLY BRANCH 2,PIPE:ADIABATIC,PIPE ADIABATIC 1,NODE 102,NODE 103,Pipe Nodes
 Component Set,16,BRANCH,MAIN SERVICE WATER LOOP SUPPLY OUTLET BRANCH,PIPE:ADIABATIC,PIPE ADIABATIC 3,NODE 105,NODE 95,Pipe Nodes
 Component Set,17,BRANCH,MAIN SERVICE WATER LOOP DEMAND INLET BRANCH,PIPE:ADIABATIC,MAIN SERVICE WATER LOOP DEMAND INLET PIPE,NODE 97,MAIN SERVICE WATER LOOP DEMAND INLET PIPE NODE,Pipe Nodes
 Component Set,18,BRANCH,MAIN SERVICE WATER LOOP DEMAND BRANCH 1,PIPE:ADIABATIC,PIPE ADIABATIC 2,NODE 99,NODE 104,Pipe Nodes
 Component Set,19,BRANCH,MAIN SERVICE WATER LOOP DEMAND BRANCH 2,WATERUSE:CONNECTIONS,WATER USE CONNECTIONS 1,NODE 107,NODE 108,DHW Nodes
 Component Set,20,BRANCH,MAIN SERVICE WATER LOOP DEMAND BRANCH 3,WATERUSE:CONNECTIONS,WATER USE CONNECTIONS 2,NODE 109,NODE 110,DHW Nodes
 Component Set,21,BRANCH,MAIN SERVICE WATER LOOP DEMAND BRANCH 4,WATERUSE:CONNECTIONS,WATER USE CONNECTIONS 3,NODE 111,NODE 112,DHW Nodes
 Component Set,22,BRANCH,MAIN SERVICE WATER LOOP DEMAND BRANCH 5,WATERUSE:CONNECTIONS,WATER USE CONNECTIONS 4,NODE 113,NODE 114,DHW Nodes
 Component Set,23,BRANCH,MAIN SERVICE WATER LOOP DEMAND BRANCH 6,WATERUSE:CONNECTIONS,WATER USE CONNECTIONS 5,NODE 115,NODE 116,DHW Nodes
 Component Set,24,BRANCH,MAIN SERVICE WATER LOOP DEMAND BRANCH 7,WATERUSE:CONNECTIONS,WATER USE CONNECTIONS 6,NODE 117,NODE 118,DHW Nodes
 Component Set,25,BRANCH,MAIN SERVICE WATER LOOP DEMAND BRANCH 8,WATERUSE:CONNECTIONS,WATER USE CONNECTIONS 7,NODE 119,NODE 120,DHW Nodes
 Component Set,26,BRANCH,MAIN SERVICE WATER LOOP DEMAND BRANCH 9,WATERUSE:CONNECTIONS,WATER USE CONNECTIONS 8,NODE 121,NODE 122,DHW Nodes
 Component Set,27,BRANCH,MAIN SERVICE WATER LOOP DEMAND BRANCH 10,WATERUSE:CONNECTIONS,WATER USE CONNECTIONS 9,NODE 123,NODE 124,DHW Nodes
 Component Set,28,BRANCH,MAIN SERVICE WATER LOOP DEMAND BRANCH 11,WATERUSE:CONNECTIONS,WATER USE CONNECTIONS 10,NODE 125,NODE 126,DHW Nodes
 Component Set,29,BRANCH,MAIN SERVICE WATER LOOP DEMAND BRANCH 12,WATERUSE:CONNECTIONS,WATER USE CONNECTIONS 11,NODE 127,NODE 128,DHW Nodes
 Component Set,30,BRANCH,MAIN SERVICE WATER LOOP DEMAND BRANCH 13,WATERUSE:CONNECTIONS,WATER USE CONNECTIONS 12,NODE 129,NODE 130,DHW Nodes
 Component Set,31,BRANCH,MAIN SERVICE WATER LOOP DEMAND BRANCH 14,WATERUSE:CONNECTIONS,WATER USE CONNECTIONS 13,NODE 131,NODE 132,DHW Nodes
 Component Set,32,BRANCH,MAIN SERVICE WATER LOOP DEMAND BRANCH 15,WATERUSE:CONNECTIONS,WATER USE CONNECTIONS 14,NODE 133,NODE 134,DHW Nodes
 Component Set,33,BRANCH,MAIN SERVICE WATER LOOP DEMAND BRANCH 16,WATERUSE:CONNECTIONS,WATER USE CONNECTIONS 15,NODE 135,NODE 136,DHW Nodes
 Component Set,34,BRANCH,MAIN SERVICE WATER LOOP DEMAND BYPASS BRANCH,PIPE:ADIABATIC,MAIN SERVICE WATER LOOP DEMAND BYPASS PIPE,MAIN SERVICE WATER LOOP DEMAND BYPASS PIPE INLET NODE,MAIN SERVICE WATER LOOP DEMAND BYPASS PIPE OUTLET NODE,Pipe Nodes
 Component Set,35,BRANCH,MAIN SERVICE WATER LOOP DEMAND OUTLET BRANCH,PIPE:ADIABATIC,PIPE ADIABATIC 4,NODE 106,NODE 98,Pipe Nodes
 Component Set,36,ZONEHVAC:AIRDISTRIBUTIONUNIT,ADU CORE_BOTTOM ZN VAV TERMINAL,AIRTERMINAL:SINGLEDUCT:VAV:REHEAT,CORE_BOTTOM ZN VAV TERMINAL,NODE 43,NODE 41,Air Nodes
 Component Set,37,ZONEHVAC:AIRDISTRIBUTIONUNIT,ADU CORE_MID ZN VAV TERMINAL,AIRTERMINAL:SINGLEDUCT:VAV:REHEAT,CORE_MID ZN VAV TERMINAL,NODE 68,NODE 66,Air Nodes
 Component Set,38,ZONEHVAC:AIRDISTRIBUTIONUNIT,ADU CORE_TOP ZN VAV TERMINAL,AIRTERMINAL:SINGLEDUCT:VAV:REHEAT,CORE_TOP ZN VAV TERMINAL,NODE 93,NODE 91,Air Nodes
 Component Set,39,ZONEHVAC:AIRDISTRIBUTIONUNIT,ADU PERIMETER_BOT_ZN_1 ZN VAV TERMINAL,AIRTERMINAL:SINGLEDUCT:VAV:REHEAT,PERIMETER_BOT_ZN_1 ZN VAV TERMINAL,NODE 30,NODE 23,Air Nodes
 Component Set,40,ZONEHVAC:AIRDISTRIBUTIONUNIT,ADU PERIMETER_BOT_ZN_2 ZN VAV TERMINAL,AIRTERMINAL:SINGLEDUCT:VAV:REHEAT,PERIMETER_BOT_ZN_2 ZN VAV TERMINAL,NODE 34,NODE 31,Air Nodes
 Component Set,41,ZONEHVAC:AIRDISTRIBUTIONUNIT,ADU PERIMETER_BOT_ZN_3 ZN VAV TERMINAL,AIRTERMINAL:SINGLEDUCT:VAV:REHEAT,PERIMETER_BOT_ZN_3 ZN VAV TERMINAL,NODE 37,NODE 35,Air Nodes
 Component Set,42,ZONEHVAC:AIRDISTRIBUTIONUNIT,ADU PERIMETER_BOT_ZN_4 ZN VAV TERMINAL,AIRTERMINAL:SINGLEDUCT:VAV:REHEAT,PERIMETER_BOT_ZN_4 ZN VAV TERMINAL,NODE 40,NODE 38,Air Nodes
 Component Set,43,ZONEHVAC:AIRDISTRIBUTIONUNIT,ADU PERIMETER_MID_ZN_1 ZN VAV TERMINAL,AIRTERMINAL:SINGLEDUCT:VAV:REHEAT,PERIMETER_MID_ZN_1 ZN VAV TERMINAL,NODE 55,NODE 48,Air Nodes
 Component Set,44,ZONEHVAC:AIRDISTRIBUTIONUNIT,ADU PERIMETER_MID_ZN_2 ZN VAV TERMINAL,AIRTERMINAL:SINGLEDUCT:VAV:REHEAT,PERIMETER_MID_ZN_2 ZN VAV TERMINAL,NODE 59,NODE 56,Air Nodes
 Component Set,45,ZONEHVAC:AIRDISTRIBUTIONUNIT,ADU PERIMETER_MID_ZN_3 ZN VAV TERMINAL,AIRTERMINAL:SINGLEDUCT:VAV:REHEAT,PERIMETER_MID_ZN_3 ZN VAV TERMINAL,NODE 62,NODE 60,Air Nodes
 Component Set,46,ZONEHVAC:AIRDISTRIBUTIONUNIT,ADU PERIMETER_MID_ZN_4 ZN VAV TERMINAL,AIRTERMINAL:SINGLEDUCT:VAV:REHEAT,PERIMETER_MID_ZN_4 ZN VAV TERMINAL,NODE 65,NODE 63,Air Nodes
 Component Set,47,ZONEHVAC:AIRDISTRIBUTIONUNIT,ADU PERIMETER_TOP_ZN_1 ZN VAV TERMINAL,AIRTERMINAL:SINGLEDUCT:VAV:REHEAT,PERIMETER_TOP_ZN_1 ZN VAV TERMINAL,NODE 80,NODE 73,Air Nodes
 Component Set,48,ZONEHVAC:AIRDISTRIBUTIONUNIT,ADU PERIMETER_TOP_ZN_2 ZN VAV TERMINAL,AIRTERMINAL:SINGLEDUCT:VAV:REHEAT,PERIMETER_TOP_ZN_2 ZN VAV TERMINAL,NODE 84,NODE 81,Air Nodes
 Component Set,49,ZONEHVAC:AIRDISTRIBUTIONUNIT,ADU PERIMETER_TOP_ZN_3 ZN VAV TERMINAL,AIRTERMINAL:SINGLEDUCT:VAV:REHEAT,PERIMETER_TOP_ZN_3 ZN VAV TERMINAL,NODE 87,NODE 85,Air Nodes
 Component Set,50,ZONEHVAC:AIRDISTRIBUTIONUNIT,ADU PERIMETER_TOP_ZN_4 ZN VAV TERMINAL,AIRTERMINAL:SINGLEDUCT:VAV:REHEAT,PERIMETER_TOP_ZN_4 ZN VAV TERMINAL,NODE 90,NODE 88,Air Nodes
 Component Set,51,AIRTERMINAL:SINGLEDUCT:VAV:REHEAT,CORE_BOTTOM ZN VAV TERMINAL,COIL:HEATING:ELECTRIC,CORE_BOTTOM ZN ELECTRIC REHEAT COIL,CORE_BOTTOM ZN VAV TERMINAL DAMPER OUTLET,NODE 41,Air Nodes
 Component Set,52,AIRTERMINAL:SINGLEDUCT:VAV:REHEAT,CORE_MID ZN VAV TERMINAL,COIL:HEATING:ELECTRIC,CORE_MID ZN ELECTRIC REHEAT COIL,CORE_MID ZN VAV TERMINAL DAMPER OUTLET,NODE 66,Air Nodes
 Component Set,53,AIRTERMINAL:SINGLEDUCT:VAV:REHEAT,CORE_TOP ZN VAV TERMINAL,COIL:HEATING:ELECTRIC,CORE_TOP ZN ELECTRIC REHEAT COIL,CORE_TOP ZN VAV TERMINAL DAMPER OUTLET,NODE 91,Air Nodes
 Component Set,54,AIRTERMINAL:SINGLEDUCT:VAV:REHEAT,PERIMETER_BOT_ZN_1 ZN VAV TERMINAL,COIL:HEATING:ELECTRIC,PERIMETER_BOT_ZN_1 ZN ELECTRIC REHEAT COIL,PERIMETER_BOT_ZN_1 ZN VAV TERMINAL DAMPER OUTLET,NODE 23,Air Nodes
 Component Set,55,AIRTERMINAL:SINGLEDUCT:VAV:REHEAT,PERIMETER_BOT_ZN_2 ZN VAV TERMINAL,COIL:HEATING:ELECTRIC,PERIMETER_BOT_ZN_2 ZN ELECTRIC REHEAT COIL,PERIMETER_BOT_ZN_2 ZN VAV TERMINAL DAMPER OUTLET,NODE 31,Air Nodes
 Component Set,56,AIRTERMINAL:SINGLEDUCT:VAV:REHEAT,PERIMETER_BOT_ZN_3 ZN VAV TERMINAL,COIL:HEATING:ELECTRIC,PERIMETER_BOT_ZN_3 ZN ELECTRIC REHEAT COIL,PERIMETER_BOT_ZN_3 ZN VAV TERMINAL DAMPER OUTLET,NODE 35,Air Nodes
 Component Set,57,AIRTERMINAL:SINGLEDUCT:VAV:REHEAT,PERIMETER_BOT_ZN_4 ZN VAV TERMINAL,COIL:HEATING:ELECTRIC,PERIMETER_BOT_ZN_4 ZN ELECTRIC REHEAT COIL,PERIMETER_BOT_ZN_4 ZN VAV TERMINAL DAMPER OUTLET,NODE 38,Air Nodes
 Component Set,58,AIRTERMINAL:SINGLEDUCT:VAV:REHEAT,PERIMETER_MID_ZN_1 ZN VAV TERMINAL,COIL:HEATING:ELECTRIC,PERIMETER_MID_ZN_1 ZN ELECTRIC REHEAT COIL,PERIMETER_MID_ZN_1 ZN VAV TERMINAL DAMPER OUTLET,NODE 48,Air Nodes
 Component Set,59,AIRTERMINAL:SINGLEDUCT:VAV:REHEAT,PERIMETER_MID_ZN_2 ZN VAV TERMINAL,COIL:HEATING:ELECTRIC,PERIMETER_MID_ZN_2 ZN ELECTRIC REHEAT COIL,PERIMETER_MID_ZN_2 ZN VAV TERMINAL DAMPER OUTLET,NODE 56,Air Nodes
 Component Set,60,AIRTERMINAL:SINGLEDUCT:VAV:REHEAT,PERIMETER_MID_ZN_3 ZN VAV TERMINAL,COIL:HEATING:ELECTRIC,PERIMETER_MID_ZN_3 ZN ELECTRIC REHEAT COIL,PERIMETER_MID_ZN_3 ZN VAV TERMINAL DAMPER OUTLET,NODE 60,Air Nodes
 Component Set,61,AIRTERMINAL:SINGLEDUCT:VAV:REHEAT,PERIMETER_MID_ZN_4 ZN VAV TERMINAL,COIL:HEATING:ELECTRIC,PERIMETER_MID_ZN_4 ZN ELECTRIC REHEAT COIL,PERIMETER_MID_ZN_4 ZN VAV TERMINAL DAMPER OUTLET,NODE 63,Air Nodes
 Component Set,62,AIRTERMINAL:SINGLEDUCT:VAV:REHEAT,PERIMETER_TOP_ZN_1 ZN VAV TERMINAL,COIL:HEATING:ELECTRIC,PERIMETER_TOP_ZN_1 ZN ELECTRIC REHEAT COIL,PERIMETER_TOP_ZN_1 ZN VAV TERMINAL DAMPER OUTLET,NODE 73,Air Nodes
 Component Set,63,AIRTERMINAL:SINGLEDUCT:VAV:REHEAT,PERIMETER_TOP_ZN_2 ZN VAV TERMINAL,COIL:HEATING:ELECTRIC,PERIMETER_TOP_ZN_2 ZN ELECTRIC REHEAT COIL,PERIMETER_TOP_ZN_2 ZN VAV TERMINAL DAMPER OUTLET,NODE 81,Air Nodes
 Component Set,64,AIRTERMINAL:SINGLEDUCT:VAV:REHEAT,PERIMETER_TOP_ZN_3 ZN VAV TERMINAL,COIL:HEATING:ELECTRIC,PERIMETER_TOP_ZN_3 ZN ELECTRIC REHEAT COIL,PERIMETER_TOP_ZN_3 ZN VAV TERMINAL DAMPER OUTLET,NODE 85,Air Nodes
 Component Set,65,AIRTERMINAL:SINGLEDUCT:VAV:REHEAT,PERIMETER_TOP_ZN_4 ZN VAV TERMINAL,COIL:HEATING:ELECTRIC,PERIMETER_TOP_ZN_4 ZN ELECTRIC REHEAT COIL,PERIMETER_TOP_ZN_4 ZN VAV TERMINAL DAMPER OUTLET,NODE 88,Air Nodes
 Component Set,66,AIRLOOPHVAC:OUTDOORAIRSYSTEM,5 ZONE PVAV OA SYSTEM,OUTDOORAIR:MIXER,5 ZONE PVAV OA SYSTEM OUTDOOR AIR MIXER,NODE 26,NODE 28,Air Nodes
 Component Set,67,AIRLOOPHVAC:OUTDOORAIRSYSTEM,5 ZONE PVAV 1 OA SYSTEM,OUTDOORAIR:MIXER,5 ZONE PVAV 1 OA SYSTEM OUTDOOR AIR MIXER,NODE 51,NODE 53,Air Nodes
 Component Set,68,AIRLOOPHVAC:OUTDOORAIRSYSTEM,5 ZONE PVAV 2 OA SYSTEM,OUTDOORAIR:MIXER,5 ZONE PVAV 2 OA SYSTEM OUTDOOR AIR MIXER,NODE 76,NODE 78,Air Nodes
 Component Set,69,COILSYSTEM:COOLING:DX,5 ZONE PVAV 2SPD DX CLG COIL COILSYSTEM,COIL:COOLING:DX:TWOSPEED,5 ZONE PVAV 2SPD DX CLG COIL,NODE 28,NODE 25,Air Nodes
 Component Set,70,COILSYSTEM:COOLING:DX,5 ZONE PVAV 1 2SPD DX CLG COIL COILSYSTEM,COIL:COOLING:DX:TWOSPEED,5 ZONE PVAV 1 2SPD DX CLG COIL,NODE 53,NODE 50,Air Nodes
 Component Set,71,COILSYSTEM:COOLING:DX,5 ZONE PVAV 2 2SPD DX CLG COIL COILSYSTEM,COIL:COOLING:DX:TWOSPEED,5 ZONE PVAV 2 2SPD DX CLG COIL,NODE 78,NODE 75,Air Nodes
! ===============================================================
! <# Plant Loops>,<Number of Plant Loops>
 #Plant Loops,1
! <Plant Loop>,<Plant Loop Name>,<Loop Type>,<Inlet Node Name>,<Outlet Node Name>,<Branch List>,<Connector List>
! <Plant Loop Connector>,<Connector Type>,<Connector Name>,<Loop Name>,<Loop Type>,<Number of Inlets/Outlets>
! <Plant Loop Connector Branches>,<Connector Node Count>,<Connector Type>,<Connector Name>,<Inlet Branch>,<Outlet Branch>,<Loop Name>,<Loop Type>
! <Plant Loop Connector Nodes>,<Connector Node Count>,<Connector Type>,<Connector Name>,<Inlet Node>,<Outlet Node>,<Loop Name>,<Loop Type>
! <Plant Loop Supply Connection>,<Plant Loop Name>,<Supply Side Outlet Node Name>,<Demand Side Inlet Node Name>
! <Plant Loop Return Connection>,<Plant Loop Name>,<Demand Side Outlet Node Name>,<Supply Side Inlet Node Name>
 Plant Loop,MAIN SERVICE WATER LOOP,Demand,NODE 97,NODE 98,MAIN SERVICE WATER LOOP DEMAND BRANCHES,MAIN SERVICE WATER LOOP DEMAND CONNECTOR LIST
   Plant Loop Connector,Splitter,MAIN SERVICE WATER LOOP DEMAND SPLITTER,MAIN SERVICE WATER LOOP,Demand,17
     Plant Loop Connector Branches,1,Splitter,MAIN SERVICE WATER LOOP DEMAND SPLITTER,MAIN SERVICE WATER LOOP DEMAND INLET BRANCH,MAIN SERVICE WATER LOOP DEMAND BRANCH 1,MAIN SERVICE WATER LOOP,Demand
     Plant Loop Connector Nodes,   1,Splitter,MAIN SERVICE WATER LOOP DEMAND SPLITTER,MAIN SERVICE WATER LOOP DEMAND INLET PIPE NODE,NODE 99,MAIN SERVICE WATER LOOP,Demand
     Plant Loop Connector Branches,2,Splitter,MAIN SERVICE WATER LOOP DEMAND SPLITTER,MAIN SERVICE WATER LOOP DEMAND INLET BRANCH,MAIN SERVICE WATER LOOP DEMAND BRANCH 2,MAIN SERVICE WATER LOOP,Demand
     Plant Loop Connector Nodes,   2,Splitter,MAIN SERVICE WATER LOOP DEMAND SPLITTER,MAIN SERVICE WATER LOOP DEMAND INLET PIPE NODE,NODE 107,MAIN SERVICE WATER LOOP,Demand
     Plant Loop Connector Branches,3,Splitter,MAIN SERVICE WATER LOOP DEMAND SPLITTER,MAIN SERVICE WATER LOOP DEMAND INLET BRANCH,MAIN SERVICE WATER LOOP DEMAND BRANCH 3,MAIN SERVICE WATER LOOP,Demand
     Plant Loop Connector Nodes,   3,Splitter,MAIN SERVICE WATER LOOP DEMAND SPLITTER,MAIN SERVICE WATER LOOP DEMAND INLET PIPE NODE,NODE 109,MAIN SERVICE WATER LOOP,Demand
     Plant Loop Connector Branches,4,Splitter,MAIN SERVICE WATER LOOP DEMAND SPLITTER,MAIN SERVICE WATER LOOP DEMAND INLET BRANCH,MAIN SERVICE WATER LOOP DEMAND BRANCH 4,MAIN SERVICE WATER LOOP,Demand
     Plant Loop Connector Nodes,   4,Splitter,MAIN SERVICE WATER LOOP DEMAND SPLITTER,MAIN SERVICE WATER LOOP DEMAND INLET PIPE NODE,NODE 111,MAIN SERVICE WATER LOOP,Demand
     Plant Loop Connector Branches,5,Splitter,MAIN SERVICE WATER LOOP DEMAND SPLITTER,MAIN SERVICE WATER LOOP DEMAND INLET BRANCH,MAIN SERVICE WATER LOOP DEMAND BRANCH 5,MAIN SERVICE WATER LOOP,Demand
     Plant Loop Connector Nodes,   5,Splitter,MAIN SERVICE WATER LOOP DEMAND SPLITTER,MAIN SERVICE WATER LOOP DEMAND INLET PIPE NODE,NODE 113,MAIN SERVICE WATER LOOP,Demand
     Plant Loop Connector Branches,6,Splitter,MAIN SERVICE WATER LOOP DEMAND SPLITTER,MAIN SERVICE WATER LOOP DEMAND INLET BRANCH,MAIN SERVICE WATER LOOP DEMAND BRANCH 6,MAIN SERVICE WATER LOOP,Demand
     Plant Loop Connector Nodes,   6,Splitter,MAIN SERVICE WATER LOOP DEMAND SPLITTER,MAIN SERVICE WATER LOOP DEMAND INLET PIPE NODE,NODE 115,MAIN SERVICE WATER LOOP,Demand
     Plant Loop Connector Branches,7,Splitter,MAIN SERVICE WATER LOOP DEMAND SPLITTER,MAIN SERVICE WATER LOOP DEMAND INLET BRANCH,MAIN SERVICE WATER LOOP DEMAND BRANCH 7,MAIN SERVICE WATER LOOP,Demand
     Plant Loop Connector Nodes,   7,Splitter,MAIN SERVICE WATER LOOP DEMAND SPLITTER,MAIN SERVICE WATER LOOP DEMAND INLET PIPE NODE,NODE 117,MAIN SERVICE WATER LOOP,Demand
     Plant Loop Connector Branches,8,Splitter,MAIN SERVICE WATER LOOP DEMAND SPLITTER,MAIN SERVICE WATER LOOP DEMAND INLET BRANCH,MAIN SERVICE WATER LOOP DEMAND BRANCH 8,MAIN SERVICE WATER LOOP,Demand
     Plant Loop Connector Nodes,   8,Splitter,MAIN SERVICE WATER LOOP DEMAND SPLITTER,MAIN SERVICE WATER LOOP DEMAND INLET PIPE NODE,NODE 119,MAIN SERVICE WATER LOOP,Demand
     Plant Loop Connector Branches,9,Splitter,MAIN SERVICE WATER LOOP DEMAND SPLITTER,MAIN SERVICE WATER LOOP DEMAND INLET BRANCH,MAIN SERVICE WATER LOOP DEMAND BRANCH 9,MAIN SERVICE WATER LOOP,Demand
     Plant Loop Connector Nodes,   9,Splitter,MAIN SERVICE WATER LOOP DEMAND SPLITTER,MAIN SERVICE WATER LOOP DEMAND INLET PIPE NODE,NODE 121,MAIN SERVICE WATER LOOP,Demand
     Plant Loop Connector Branches,10,Splitter,MAIN SERVICE WATER LOOP DEMAND SPLITTER,MAIN SERVICE WATER LOOP DEMAND INLET BRANCH,MAIN SERVICE WATER LOOP DEMAND BRANCH 10,MAIN SERVICE WATER LOOP,Demand
     Plant Loop Connector Nodes,   10,Splitter,MAIN SERVICE WATER LOOP DEMAND SPLITTER,MAIN SERVICE WATER LOOP DEMAND INLET PIPE NODE,NODE 123,MAIN SERVICE WATER LOOP,Demand
     Plant Loop Connector Branches,11,Splitter,MAIN SERVICE WATER LOOP DEMAND SPLITTER,MAIN SERVICE WATER LOOP DEMAND INLET BRANCH,MAIN SERVICE WATER LOOP DEMAND BRANCH 11,MAIN SERVICE WATER LOOP,Demand
     Plant Loop Connector Nodes,   11,Splitter,MAIN SERVICE WATER LOOP DEMAND SPLITTER,MAIN SERVICE WATER LOOP DEMAND INLET PIPE NODE,NODE 125,MAIN SERVICE WATER LOOP,Demand
     Plant Loop Connector Branches,12,Splitter,MAIN SERVICE WATER LOOP DEMAND SPLITTER,MAIN SERVICE WATER LOOP DEMAND INLET BRANCH,MAIN SERVICE WATER LOOP DEMAND BRANCH 12,MAIN SERVICE WATER LOOP,Demand
     Plant Loop Connector Nodes,   12,Splitter,MAIN SERVICE WATER LOOP DEMAND SPLITTER,MAIN SERVICE WATER LOOP DEMAND INLET PIPE NODE,NODE 127,MAIN SERVICE WATER LOOP,Demand
     Plant Loop Connector Branches,13,Splitter,MAIN SERVICE WATER LOOP DEMAND SPLITTER,MAIN SERVICE WATER LOOP DEMAND INLET BRANCH,MAIN SERVICE WATER LOOP DEMAND BRANCH 13,MAIN SERVICE WATER LOOP,Demand
     Plant Loop Connector Nodes,   13,Splitter,MAIN SERVICE WATER LOOP DEMAND SPLITTER,MAIN SERVICE WATER LOOP DEMAND INLET PIPE NODE,NODE 129,MAIN SERVICE WATER LOOP,Demand
     Plant Loop Connector Branches,14,Splitter,MAIN SERVICE WATER LOOP DEMAND SPLITTER,MAIN SERVICE WATER LOOP DEMAND INLET BRANCH,MAIN SERVICE WATER LOOP DEMAND BRANCH 14,MAIN SERVICE WATER LOOP,Demand
     Plant Loop Connector Nodes,   14,Splitter,MAIN SERVICE WATER LOOP DEMAND SPLITTER,MAIN SERVICE WATER LOOP DEMAND INLET PIPE NODE,NODE 131,MAIN SERVICE WATER LOOP,Demand
     Plant Loop Connector Branches,15,Splitter,MAIN SERVICE WATER LOOP DEMAND SPLITTER,MAIN SERVICE WATER LOOP DEMAND INLET BRANCH,MAIN SERVICE WATER LOOP DEMAND BRANCH 15,MAIN SERVICE WATER LOOP,Demand
     Plant Loop Connector Nodes,   15,Splitter,MAIN SERVICE WATER LOOP DEMAND SPLITTER,MAIN SERVICE WATER LOOP DEMAND INLET PIPE NODE,NODE 133,MAIN SERVICE WATER LOOP,Demand
     Plant Loop Connector Branches,16,Splitter,MAIN SERVICE WATER LOOP DEMAND SPLITTER,MAIN SERVICE WATER LOOP DEMAND INLET BRANCH,MAIN SERVICE WATER LOOP DEMAND BRANCH 16,MAIN SERVICE WATER LOOP,Demand
     Plant Loop Connector Nodes,   16,Splitter,MAIN SERVICE WATER LOOP DEMAND SPLITTER,MAIN SERVICE WATER LOOP DEMAND INLET PIPE NODE,NODE 135,MAIN SERVICE WATER LOOP,Demand
     Plant Loop Connector Branches,17,Splitter,MAIN SERVICE WATER LOOP DEMAND SPLITTER,MAIN SERVICE WATER LOOP DEMAND INLET BRANCH,MAIN SERVICE WATER LOOP DEMAND BYPASS BRANCH,MAIN SERVICE WATER LOOP,Demand
     Plant Loop Connector Nodes,   17,Splitter,MAIN SERVICE WATER LOOP DEMAND SPLITTER,MAIN SERVICE WATER LOOP DEMAND INLET PIPE NODE,MAIN SERVICE WATER LOOP DEMAND BYPASS PIPE INLET NODE,MAIN SERVICE WATER LOOP,Demand
   Plant Loop Connector,Mixer,MAIN SERVICE WATER LOOP DEMAND MIXER,MAIN SERVICE WATER LOOP,Demand,17
     Plant Loop Connector Branches,1,Mixer,MAIN SERVICE WATER LOOP DEMAND MIXER,MAIN SERVICE WATER LOOP DEMAND BRANCH 1,MAIN SERVICE WATER LOOP DEMAND OUTLET BRANCH,MAIN SERVICE WATER LOOP,Demand
     Plant Loop Connector Nodes,   1,Mixer,MAIN SERVICE WATER LOOP DEMAND MIXER,NODE 104,NODE 106,MAIN SERVICE WATER LOOP,Demand
     Plant Loop Connector Branches,2,Mixer,MAIN SERVICE WATER LOOP DEMAND MIXER,MAIN SERVICE WATER LOOP DEMAND BRANCH 2,MAIN SERVICE WATER LOOP DEMAND OUTLET BRANCH,MAIN SERVICE WATER LOOP,Demand
     Plant Loop Connector Nodes,   2,Mixer,MAIN SERVICE WATER LOOP DEMAND MIXER,NODE 108,NODE 106,MAIN SERVICE WATER LOOP,Demand
     Plant Loop Connector Branches,3,Mixer,MAIN SERVICE WATER LOOP DEMAND MIXER,MAIN SERVICE WATER LOOP DEMAND BRANCH 3,MAIN SERVICE WATER LOOP DEMAND OUTLET BRANCH,MAIN SERVICE WATER LOOP,Demand
     Plant Loop Connector Nodes,   3,Mixer,MAIN SERVICE WATER LOOP DEMAND MIXER,NODE 110,NODE 106,MAIN SERVICE WATER LOOP,Demand
     Plant Loop Connector Branches,4,Mixer,MAIN SERVICE WATER LOOP DEMAND MIXER,MAIN SERVICE WATER LOOP DEMAND BRANCH 4,MAIN SERVICE WATER LOOP DEMAND OUTLET BRANCH,MAIN SERVICE WATER LOOP,Demand
     Plant Loop Connector Nodes,   4,Mixer,MAIN SERVICE WATER LOOP DEMAND MIXER,NODE 112,NODE 106,MAIN SERVICE WATER LOOP,Demand
     Plant Loop Connector Branches,5,Mixer,MAIN SERVICE WATER LOOP DEMAND MIXER,MAIN SERVICE WATER LOOP DEMAND BRANCH 5,MAIN SERVICE WATER LOOP DEMAND OUTLET BRANCH,MAIN SERVICE WATER LOOP,Demand
     Plant Loop Connector Nodes,   5,Mixer,MAIN SERVICE WATER LOOP DEMAND MIXER,NODE 114,NODE 106,MAIN SERVICE WATER LOOP,Demand
     Plant Loop Connector Branches,6,Mixer,MAIN SERVICE WATER LOOP DEMAND MIXER,MAIN SERVICE WATER LOOP DEMAND BRANCH 6,MAIN SERVICE WATER LOOP DEMAND OUTLET BRANCH,MAIN SERVICE WATER LOOP,Demand
     Plant Loop Connector Nodes,   6,Mixer,MAIN SERVICE WATER LOOP DEMAND MIXER,NODE 116,NODE 106,MAIN SERVICE WATER LOOP,Demand
     Plant Loop Connector Branches,7,Mixer,MAIN SERVICE WATER LOOP DEMAND MIXER,MAIN SERVICE WATER LOOP DEMAND BRANCH 7,MAIN SERVICE WATER LOOP DEMAND OUTLET BRANCH,MAIN SERVICE WATER LOOP,Demand
     Plant Loop Connector Nodes,   7,Mixer,MAIN SERVICE WATER LOOP DEMAND MIXER,NODE 118,NODE 106,MAIN SERVICE WATER LOOP,Demand
     Plant Loop Connector Branches,8,Mixer,MAIN SERVICE WATER LOOP DEMAND MIXER,MAIN SERVICE WATER LOOP DEMAND BRANCH 8,MAIN SERVICE WATER LOOP DEMAND OUTLET BRANCH,MAIN SERVICE WATER LOOP,Demand
     Plant Loop Connector Nodes,   8,Mixer,MAIN SERVICE WATER LOOP DEMAND MIXER,NODE 120,NODE 106,MAIN SERVICE WATER LOOP,Demand
     Plant Loop Connector Branches,9,Mixer,MAIN SERVICE WATER LOOP DEMAND MIXER,MAIN SERVICE WATER LOOP DEMAND BRANCH 9,MAIN SERVICE WATER LOOP DEMAND OUTLET BRANCH,MAIN SERVICE WATER LOOP,Demand
     Plant Loop Connector Nodes,   9,Mixer,MAIN SERVICE WATER LOOP DEMAND MIXER,NODE 122,NODE 106,MAIN SERVICE WATER LOOP,Demand
     Plant Loop Connector Branches,10,Mixer,MAIN SERVICE WATER LOOP DEMAND MIXER,MAIN SERVICE WATER LOOP DEMAND BRANCH 10,MAIN SERVICE WATER LOOP DEMAND OUTLET BRANCH,MAIN SERVICE WATER LOOP,Demand
     Plant Loop Connector Nodes,   10,Mixer,MAIN SERVICE WATER LOOP DEMAND MIXER,NODE 124,NODE 106,MAIN SERVICE WATER LOOP,Demand
     Plant Loop Connector Branches,11,Mixer,MAIN SERVICE WATER LOOP DEMAND MIXER,MAIN SERVICE WATER LOOP DEMAND BRANCH 11,MAIN SERVICE WATER LOOP DEMAND OUTLET BRANCH,MAIN SERVICE WATER LOOP,Demand
     Plant Loop Connector Nodes,   11,Mixer,MAIN SERVICE WATER LOOP DEMAND MIXER,NODE 126,NODE 106,MAIN SERVICE WATER LOOP,Demand
     Plant Loop Connector Branches,12,Mixer,MAIN SERVICE WATER LOOP DEMAND MIXER,MAIN SERVICE WATER LOOP DEMAND BRANCH 12,MAIN SERVICE WATER LOOP DEMAND OUTLET BRANCH,MAIN SERVICE WATER LOOP,Demand
     Plant Loop Connector Nodes,   12,Mixer,MAIN SERVICE WATER LOOP DEMAND MIXER,NODE 128,NODE 106,MAIN SERVICE WATER LOOP,Demand
     Plant Loop Connector Branches,13,Mixer,MAIN SERVICE WATER LOOP DEMAND MIXER,MAIN SERVICE WATER LOOP DEMAND BRANCH 13,MAIN SERVICE WATER LOOP DEMAND OUTLET BRANCH,MAIN SERVICE WATER LOOP,Demand
     Plant Loop Connector Nodes,   13,Mixer,MAIN SERVICE WATER LOOP DEMAND MIXER,NODE 130,NODE 106,MAIN SERVICE WATER LOOP,Demand
     Plant Loop Connector Branches,14,Mixer,MAIN SERVICE WATER LOOP DEMAND MIXER,MAIN SERVICE WATER LOOP DEMAND BRANCH 14,MAIN SERVICE WATER LOOP DEMAND OUTLET BRANCH,MAIN SERVICE WATER LOOP,Demand
     Plant Loop Connector Nodes,   14,Mixer,MAIN SERVICE WATER LOOP DEMAND MIXER,NODE 132,NODE 106,MAIN SERVICE WATER LOOP,Demand
     Plant Loop Connector Branches,15,Mixer,MAIN SERVICE WATER LOOP DEMAND MIXER,MAIN SERVICE WATER LOOP DEMAND BRANCH 15,MAIN SERVICE WATER LOOP DEMAND OUTLET BRANCH,MAIN SERVICE WATER LOOP,Demand
     Plant Loop Connector Nodes,   15,Mixer,MAIN SERVICE WATER LOOP DEMAND MIXER,NODE 134,NODE 106,MAIN SERVICE WATER LOOP,Demand
     Plant Loop Connector Branches,16,Mixer,MAIN SERVICE WATER LOOP DEMAND MIXER,MAIN SERVICE WATER LOOP DEMAND BRANCH 16,MAIN SERVICE WATER LOOP DEMAND OUTLET BRANCH,MAIN SERVICE WATER LOOP,Demand
     Plant Loop Connector Nodes,   16,Mixer,MAIN SERVICE WATER LOOP DEMAND MIXER,NODE 136,NODE 106,MAIN SERVICE WATER LOOP,Demand
     Plant Loop Connector Branches,17,Mixer,MAIN SERVICE WATER LOOP DEMAND MIXER,MAIN SERVICE WATER LOOP DEMAND BYPASS BRANCH,MAIN SERVICE WATER LOOP DEMAND OUTLET BRANCH,MAIN SERVICE WATER LOOP,Demand
     Plant Loop Connector Nodes,   17,Mixer,MAIN SERVICE WATER LOOP DEMAND MIXER,MAIN SERVICE WATER LOOP DEMAND BYPASS PIPE OUTLET NODE,NODE 106,MAIN SERVICE WATER LOOP,Demand
 Plant Loop,MAIN SERVICE WATER LOOP,Supply,NODE 94,NODE 95,MAIN SERVICE WATER LOOP SUPPLY BRANCHES,MAIN SERVICE WATER LOOP SUPPLY CONNECTOR LIST
   Plant Loop Connector,Splitter,MAIN SERVICE WATER LOOP SUPPLY SPLITTER,MAIN SERVICE WATER LOOP,Supply,2
     Plant Loop Connector Branches,1,Splitter,MAIN SERVICE WATER LOOP SUPPLY SPLITTER,MAIN SERVICE WATER LOOP SUPPLY INLET BRANCH,MAIN SERVICE WATER LOOP SUPPLY BRANCH 1,MAIN SERVICE WATER LOOP,Supply
     Plant Loop Connector Nodes,   1,Splitter,MAIN SERVICE WATER LOOP SUPPLY SPLITTER,NODE 100,NODE 96,MAIN SERVICE WATER LOOP,Supply
     Plant Loop Connector Branches,2,Splitter,MAIN SERVICE WATER LOOP SUPPLY SPLITTER,MAIN SERVICE WATER LOOP SUPPLY INLET BRANCH,MAIN SERVICE WATER LOOP SUPPLY BRANCH 2,MAIN SERVICE WATER LOOP,Supply
     Plant Loop Connector Nodes,   2,Splitter,MAIN SERVICE WATER LOOP SUPPLY SPLITTER,NODE 100,NODE 102,MAIN SERVICE WATER LOOP,Supply
   Plant Loop Connector,Mixer,MAIN SERVICE WATER LOOP SUPPLY MIXER,MAIN SERVICE WATER LOOP,Supply,2
     Plant Loop Connector Branches,1,Mixer,MAIN SERVICE WATER LOOP SUPPLY MIXER,MAIN SERVICE WATER LOOP SUPPLY BRANCH 1,MAIN SERVICE WATER LOOP SUPPLY OUTLET BRANCH,MAIN SERVICE WATER LOOP,Supply
     Plant Loop Connector Nodes,   1,Mixer,MAIN SERVICE WATER LOOP SUPPLY MIXER,NODE 101,NODE 105,MAIN SERVICE WATER LOOP,Supply
     Plant Loop Connector Branches,2,Mixer,MAIN SERVICE WATER LOOP SUPPLY MIXER,MAIN SERVICE WATER LOOP SUPPLY BRANCH 2,MAIN SERVICE WATER LOOP SUPPLY OUTLET BRANCH,MAIN SERVICE WATER LOOP,Supply
     Plant Loop Connector Nodes,   2,Mixer,MAIN SERVICE WATER LOOP SUPPLY MIXER,NODE 103,NODE 105,MAIN SERVICE WATER LOOP,Supply
 Plant Loop Supply Connection,MAIN SERVICE WATER LOOP,NODE 95,NODE 97
 Plant Loop Return Connection,MAIN SERVICE WATER LOOP,NODE 98,NODE 94
! ===============================================================
! <# Condenser Loops>,<Number of Condenser Loops>
 #Condenser Loops,0
! <Condenser Loop>,<Condenser Loop Name>,<Loop Type>,<Inlet Node Name>,<Outlet Node Name>,<Branch List>,<Connector List>
! <Condenser Loop Connector>,<Connector Type>,<Connector Name>,<Loop Name>,<Loop Type>,<Number of Inlets/Outlets>
! <Condenser Loop Connector Branches>,<Connector Node Count>,<Connector Type>,<Connector Name>,<Inlet Branch>,<Outlet Branch>,<Loop Name>,<Loop Type>
! <Condenser Loop Connector Nodes>,<Connector Node Count>,<Connector Type>,<Connector Name>,<Inlet Node>,<Outlet Node>,<Loop Name>,<Loop Type>
! <Condenser Loop Supply Connection>,<Condenser Loop Name>,<Supply Side Outlet Node Name>,<Demand Side Inlet Node Name>
! <Condenser Loop Return Connection>,<Condenser Loop Name>,<Demand Side Outlet Node Name>,<Supply Side Inlet Node Name>
! ===============================================================
! <# Controlled Zones>,<Number of Controlled Zones>
 #Controlled Zones,15
! <Controlled Zone>,<Controlled Zone Name>,<Equip List Name>,<Control List Name>,<Zone Node Name>,<# Inlet Nodes>,<# Exhaust Nodes>,<# Return Nodes>
! <Controlled Zone Inlet>,<Inlet Node Count>,<Controlled Zone Name>,<Supply Air Inlet Node Name>,<SD Sys:Cooling/Heating [DD:Cooling] Inlet Node Name>,<DD Sys:Heating Inlet Node Name>
! <Controlled Zone Exhaust>,<Exhaust Node Count>,<Controlled Zone Name>,<Exhaust Air Node Name>
 Controlled Zone,CORE_BOTTOM ZN,CORE_BOTTOM ZN EQUIPMENT LIST,,NODE 1,1,0,1
   Controlled Zone Inlet,1,CORE_BOTTOM ZN,NODE 41,NODE 43,N/A
   Controlled Zone Return,1,CORE_BOTTOM ZN,NODE 42
 Controlled Zone,CORE_MID ZN,CORE_MID ZN EQUIPMENT LIST,,NODE 2,1,0,1
   Controlled Zone Inlet,1,CORE_MID ZN,NODE 66,NODE 68,N/A
   Controlled Zone Return,1,CORE_MID ZN,NODE 67
 Controlled Zone,CORE_TOP ZN,CORE_TOP ZN EQUIPMENT LIST,,NODE 3,1,0,1
   Controlled Zone Inlet,1,CORE_TOP ZN,NODE 91,NODE 93,N/A
   Controlled Zone Return,1,CORE_TOP ZN,NODE 92
 Controlled Zone,PERIMETER_BOT_ZN_1 ZN,PERIMETER_BOT_ZN_1 ZN EQUIPMENT LIST,,NODE 6,1,0,1
   Controlled Zone Inlet,1,PERIMETER_BOT_ZN_1 ZN,NODE 23,NODE 30,N/A
   Controlled Zone Return,1,PERIMETER_BOT_ZN_1 ZN,NODE 29
 Controlled Zone,PERIMETER_BOT_ZN_2 ZN,PERIMETER_BOT_ZN_2 ZN EQUIPMENT LIST,,NODE 7,1,0,1
   Controlled Zone Inlet,1,PERIMETER_BOT_ZN_2 ZN,NODE 31,NODE 34,N/A
   Controlled Zone Return,1,PERIMETER_BOT_ZN_2 ZN,NODE 33
 Controlled Zone,PERIMETER_BOT_ZN_3 ZN,PERIMETER_BOT_ZN_3 ZN EQUIPMENT LIST,,NODE 8,1,0,1
   Controlled Zone Inlet,1,PERIMETER_BOT_ZN_3 ZN,NODE 35,NODE 37,N/A
   Controlled Zone Return,1,PERIMETER_BOT_ZN_3 ZN,NODE 36
 Controlled Zone,PERIMETER_BOT_ZN_4 ZN,PERIMETER_BOT_ZN_4 ZN EQUIPMENT LIST,,NODE 9,1,0,1
   Controlled Zone Inlet,1,PERIMETER_BOT_ZN_4 ZN,NODE 38,NODE 40,N/A
   Controlled Zone Return,1,PERIMETER_BOT_ZN_4 ZN,NODE 39
 Controlled Zone,PERIMETER_MID_ZN_1 ZN,PERIMETER_MID_ZN_1 ZN EQUIPMENT LIST,,NODE 10,1,0,1
   Controlled Zone Inlet,1,PERIMETER_MID_ZN_1 ZN,NODE 48,NODE 55,N/A
   Controlled Zone Return,1,PERIMETER_MID_ZN_1 ZN,NODE 54
 Controlled Zone,PERIMETER_MID_ZN_2 ZN,PERIMETER_MID_ZN_2 ZN EQUIPMENT LIST,,NODE 11,1,0,1
   Controlled Zone Inlet,1,PERIMETER_MID_ZN_2 ZN,NODE 56,NODE 59,N/A
   Controlled Zone Return,1,PERIMETER_MID_ZN_2 ZN,NODE 58
 Controlled Zone,PERIMETER_MID_ZN_3 ZN,PERIMETER_MID_ZN_3 ZN EQUIPMENT LIST,,NODE 12,1,0,1
   Controlled Zone Inlet,1,PERIMETER_MID_ZN_3 ZN,NODE 60,NODE 62,N/A
   Controlled Zone Return,1,PERIMETER_MID_ZN_3 ZN,NODE 61
 Controlled Zone,PERIMETER_MID_ZN_4 ZN,PERIMETER_MID_ZN_4 ZN EQUIPMENT LIST,,NODE 13,1,0,1
   Controlled Zone Inlet,1,PERIMETER_MID_ZN_4 ZN,NODE 63,NODE 65,N/A
   Controlled Zone Return,1,PERIMETER_MID_ZN_4 ZN,NODE 64
 Controlled Zone,PERIMETER_TOP_ZN_1 ZN,PERIMETER_TOP_ZN_1 ZN EQUIPMENT LIST,,NODE 14,1,0,1
   Controlled Zone Inlet,1,PERIMETER_TOP_ZN_1 ZN,NODE 73,NODE 80,N/A
   Controlled Zone Return,1,PERIMETER_TOP_ZN_1 ZN,NODE 79
 Controlled Zone,PERIMETER_TOP_ZN_2 ZN,PERIMETER_TOP_ZN_2 ZN EQUIPMENT LIST,,NODE 15,1,0,1
   Controlled Zone Inlet,1,PERIMETER_TOP_ZN_2 ZN,NODE 81,NODE 84,N/A
   Controlled Zone Return,1,PERIMETER_TOP_ZN_2 ZN,NODE 83
 Controlled Zone,PERIMETER_TOP_ZN_3 ZN,PERIMETER_TOP_ZN_3 ZN EQUIPMENT LIST,,NODE 16,1,0,1
   Controlled Zone Inlet,1,PERIMETER_TOP_ZN_3 ZN,NODE 85,NODE 87,N/A
   Controlled Zone Return,1,PERIMETER_TOP_ZN_3 ZN,NODE 86
 Controlled Zone,PERIMETER_TOP_ZN_4 ZN,PERIMETER_TOP_ZN_4 ZN EQUIPMENT LIST,,NODE 17,1,0,1
   Controlled Zone Inlet,1,PERIMETER_TOP_ZN_4 ZN,NODE 88,NODE 90,N/A
   Controlled Zone Return,1,PERIMETER_TOP_ZN_4 ZN,NODE 89
! ===============================================================
! <#Zone Equipment Lists>,<Number of Zone Equipment Lists>
 #Zone Equipment Lists,15
! <Zone Equipment List>,<Zone Equipment List Count>,<Zone Equipment List Name>,<Zone Name>,<Number of Components>
! <Zone Equipment Component>,<Component Count>,<Component Type>,<Component Name>,<Zone Name>,<Heating Priority>,<Cooling Priority>
 Zone Equipment List,1,CORE_BOTTOM ZN EQUIPMENT LIST,CORE_BOTTOM ZN,1
   Zone Equipment Component,1,ZONEHVAC:AIRDISTRIBUTIONUNIT,ADU CORE_BOTTOM ZN VAV TERMINAL,CORE_BOTTOM ZN,1,1
 Zone Equipment List,2,CORE_MID ZN EQUIPMENT LIST,CORE_MID ZN,1
   Zone Equipment Component,1,ZONEHVAC:AIRDISTRIBUTIONUNIT,ADU CORE_MID ZN VAV TERMINAL,CORE_MID ZN,1,1
 Zone Equipment List,3,CORE_TOP ZN EQUIPMENT LIST,CORE_TOP ZN,1
   Zone Equipment Component,1,ZONEHVAC:AIRDISTRIBUTIONUNIT,ADU CORE_TOP ZN VAV TERMINAL,CORE_TOP ZN,1,1
 Zone Equipment List,6,PERIMETER_BOT_ZN_1 ZN EQUIPMENT LIST,PERIMETER_BOT_ZN_1 ZN,1
   Zone Equipment Component,1,ZONEHVAC:AIRDISTRIBUTIONUNIT,ADU PERIMETER_BOT_ZN_1 ZN VAV TERMINAL,PERIMETER_BOT_ZN_1 ZN,1,1
 Zone Equipment List,7,PERIMETER_BOT_ZN_2 ZN EQUIPMENT LIST,PERIMETER_BOT_ZN_2 ZN,1
   Zone Equipment Component,1,ZONEHVAC:AIRDISTRIBUTIONUNIT,ADU PERIMETER_BOT_ZN_2 ZN VAV TERMINAL,PERIMETER_BOT_ZN_2 ZN,1,1
 Zone Equipment List,8,PERIMETER_BOT_ZN_3 ZN EQUIPMENT LIST,PERIMETER_BOT_ZN_3 ZN,1
   Zone Equipment Component,1,ZONEHVAC:AIRDISTRIBUTIONUNIT,ADU PERIMETER_BOT_ZN_3 ZN VAV TERMINAL,PERIMETER_BOT_ZN_3 ZN,1,1
 Zone Equipment List,9,PERIMETER_BOT_ZN_4 ZN EQUIPMENT LIST,PERIMETER_BOT_ZN_4 ZN,1
   Zone Equipment Component,1,ZONEHVAC:AIRDISTRIBUTIONUNIT,ADU PERIMETER_BOT_ZN_4 ZN VAV TERMINAL,PERIMETER_BOT_ZN_4 ZN,1,1
 Zone Equipment List,10,PERIMETER_MID_ZN_1 ZN EQUIPMENT LIST,PERIMETER_MID_ZN_1 ZN,1
   Zone Equipment Component,1,ZONEHVAC:AIRDISTRIBUTIONUNIT,ADU PERIMETER_MID_ZN_1 ZN VAV TERMINAL,PERIMETER_MID_ZN_1 ZN,1,1
 Zone Equipment List,11,PERIMETER_MID_ZN_2 ZN EQUIPMENT LIST,PERIMETER_MID_ZN_2 ZN,1
   Zone Equipment Component,1,ZONEHVAC:AIRDISTRIBUTIONUNIT,ADU PERIMETER_MID_ZN_2 ZN VAV TERMINAL,PERIMETER_MID_ZN_2 ZN,1,1
 Zone Equipment List,12,PERIMETER_MID_ZN_3 ZN EQUIPMENT LIST,PERIMETER_MID_ZN_3 ZN,1
   Zone Equipment Component,1,ZONEHVAC:AIRDISTRIBUTIONUNIT,ADU PERIMETER_MID_ZN_3 ZN VAV TERMINAL,PERIMETER_MID_ZN_3 ZN,1,1
 Zone Equipment List,13,PERIMETER_MID_ZN_4 ZN EQUIPMENT LIST,PERIMETER_MID_ZN_4 ZN,1
   Zone Equipment Component,1,ZONEHVAC:AIRDISTRIBUTIONUNIT,ADU PERIMETER_MID_ZN_4 ZN VAV TERMINAL,PERIMETER_MID_ZN_4 ZN,1,1
 Zone Equipment List,14,PERIMETER_TOP_ZN_1 ZN EQUIPMENT LIST,PERIMETER_TOP_ZN_1 ZN,1
   Zone Equipment Component,1,ZONEHVAC:AIRDISTRIBUTIONUNIT,ADU PERIMETER_TOP_ZN_1 ZN VAV TERMINAL,PERIMETER_TOP_ZN_1 ZN,1,1
 Zone Equipment List,15,PERIMETER_TOP_ZN_2 ZN EQUIPMENT LIST,PERIMETER_TOP_ZN_2 ZN,1
   Zone Equipment Component,1,ZONEHVAC:AIRDISTRIBUTIONUNIT,ADU PERIMETER_TOP_ZN_2 ZN VAV TERMINAL,PERIMETER_TOP_ZN_2 ZN,1,1
 Zone Equipment List,16,PERIMETER_TOP_ZN_3 ZN EQUIPMENT LIST,PERIMETER_TOP_ZN_3 ZN,1
   Zone Equipment Component,1,ZONEHVAC:AIRDISTRIBUTIONUNIT,ADU PERIMETER_TOP_ZN_3 ZN VAV TERMINAL,PERIMETER_TOP_ZN_3 ZN,1,1
 Zone Equipment List,17,PERIMETER_TOP_ZN_4 ZN EQUIPMENT LIST,PERIMETER_TOP_ZN_4 ZN,1
   Zone Equipment Component,1,ZONEHVAC:AIRDISTRIBUTIONUNIT,ADU PERIMETER_TOP_ZN_4 ZN VAV TERMINAL,PERIMETER_TOP_ZN_4 ZN,1,1
! ===============================================================
! <#AirLoopHVACs>,<Number of AirLoopHVACs>
 #AirLoopHVACs,3
! <AirLoopHVAC>,<Air Loop Name>,<# Return Nodes>,<# Supply Nodes>,<# Zones Cooled>,<# Zones Heated>,<Outdoor Air Used>
! <AirLoop Return Connections>,<Connection Count>,<AirLoopHVAC Name>,<Zn Eqp Return Node #>,<Zn Eqp Return Node Name>,<AirLoop Return Node #>,<Air Loop Return Node Name>
! <AirLoop Supply Connections>,<Connection Count>,<AirLoopHVAC Name>,<Zn Eqp Supply Node #>,<Zn Eqp Supply Node Name>,<AirLoop Supply Node #>,<Air Loop Supply Node Name>
! <Cooled Zone Info>,<Cooled Zone Count>,<Cooled Zone Name>,<Cooled Zone Inlet Node #>,<Cooled Zone Inlet Node Name>,<AirLoopHVAC Name>
! <Heated Zone Info>,<Heated Zone Count>,<Heated Zone Name>,<Heated Zone Inlet Node #>,<Heated Zone Inlet Node Name>,<AirLoopHVAC Name>
! <Outdoor Air Connections>,<OA Inlet Node #>,<OA Return Air Inlet Node Name>,<OA Outlet Node #>,<OA Mixed Air Outlet Node Name>,<AirLoopHVAC Name>
! <AirLoopHVAC Connector>,<Connector Type>,<Connector Name>,<Loop Name>,<Loop Type>,<Number of Inlets/Outlets>
! <AirLoopHVAC Connector Branches>,<Connector Node Count>,<Connector Type>,<Connector Name>,<Inlet Branch>,<Outlet Branch>,<Loop Name>,<Loop Type>
! <AirLoopHVAC Connector Nodes>,<Connector Node Count>,<Connector Type>,<Connector Name>,<Inlet Node>,<Outlet Node>,<Loop Name>,<Loop Type>
 AirLoopHVAC,5 ZONE PVAV,1,1,5,0,Yes
   AirLoop Return Connections,1,5 ZONE PVAV,110,NODE 22,37,NODE 19
   AirLoop Supply Connections,1,5 ZONE PVAV,32,NODE 21,31,NODE 20
   Cooled Zone Info,1,PERIMETER_BOT_ZN_1 ZN,7,NODE 23,5 ZONE PVAV
   Cooled Zone Info,2,PERIMETER_BOT_ZN_2 ZN,9,NODE 31,5 ZONE PVAV
   Cooled Zone Info,3,PERIMETER_BOT_ZN_3 ZN,11,NODE 35,5 ZONE PVAV
   Cooled Zone Info,4,PERIMETER_BOT_ZN_4 ZN,13,NODE 38,5 ZONE PVAV
   Cooled Zone Info,5,CORE_BOTTOM ZN,1,NODE 41,5 ZONE PVAV
   Outdoor Air Connections,37,NODE 19,38,NODE 28,5 ZONE PVAV
 AirLoopHVAC,5 ZONE PVAV 1,1,1,5,0,Yes
   AirLoop Return Connections,1,5 ZONE PVAV 1,111,NODE 47,41,NODE 44
   AirLoop Supply Connections,1,5 ZONE PVAV 1,34,NODE 46,33,NODE 45
   Cooled Zone Info,1,PERIMETER_MID_ZN_1 ZN,15,NODE 48,5 ZONE PVAV 1
   Cooled Zone Info,2,PERIMETER_MID_ZN_2 ZN,17,NODE 56,5 ZONE PVAV 1
   Cooled Zone Info,3,PERIMETER_MID_ZN_3 ZN,19,NODE 60,5 ZONE PVAV 1
   Cooled Zone Info,4,PERIMETER_MID_ZN_4 ZN,21,NODE 63,5 ZONE PVAV 1
   Cooled Zone Info,5,CORE_MID ZN,3,NODE 66,5 ZONE PVAV 1
   Outdoor Air Connections,41,NODE 44,42,NODE 53,5 ZONE PVAV 1
 AirLoopHVAC,5 ZONE PVAV 2,1,1,5,0,Yes
   AirLoop Return Connections,1,5 ZONE PVAV 2,112,NODE 72,45,NODE 69
   AirLoop Supply Connections,1,5 ZONE PVAV 2,36,NODE 71,35,NODE 70
   Cooled Zone Info,1,PERIMETER_TOP_ZN_1 ZN,23,NODE 73,5 ZONE PVAV 2
   Cooled Zone Info,2,PERIMETER_TOP_ZN_2 ZN,25,NODE 81,5 ZONE PVAV 2
   Cooled Zone Info,3,PERIMETER_TOP_ZN_3 ZN,27,NODE 85,5 ZONE PVAV 2
   Cooled Zone Info,4,PERIMETER_TOP_ZN_4 ZN,29,NODE 88,5 ZONE PVAV 2
   Cooled Zone Info,5,CORE_TOP ZN,5,NODE 91,5 ZONE PVAV 2
   Outdoor Air Connections,45,NODE 69,46,NODE 78,5 ZONE PVAV 2
! ===============================================================
! <#Parent Node Connections>,<Number of Parent Node Connections>
 #Parent Node Connections,123
! <Parent Node Connection>,<Node Name>,<Node ObjectType>,<Node ObjectName>,<Node ConnectionType>,<Node FluidStream>
 Parent Node Connection,NODE 19,BRANCH,5 ZONE PVAV MAIN BRANCH,Inlet,1
 Parent Node Connection,NODE 28,BRANCH,5 ZONE PVAV MAIN BRANCH,Internal,1
 Parent Node Connection,NODE 25,BRANCH,5 ZONE PVAV MAIN BRANCH,Internal,1
 Parent Node Connection,NODE 24,BRANCH,5 ZONE PVAV MAIN BRANCH,Internal,1
 Parent Node Connection,NODE 20,BRANCH,5 ZONE PVAV MAIN BRANCH,Outlet,1
 Parent Node Connection,NODE 44,BRANCH,5 ZONE PVAV 1 MAIN BRANCH,Inlet,1
 Parent Node Connection,NODE 53,BRANCH,5 ZONE PVAV 1 MAIN BRANCH,Internal,1
 Parent Node Connection,NODE 50,BRANCH,5 ZONE PVAV 1 MAIN BRANCH,Internal,1
 Parent Node Connection,NODE 49,BRANCH,5 ZONE PVAV 1 MAIN BRANCH,Internal,1
 Parent Node Connection,NODE 45,BRANCH,5 ZONE PVAV 1 MAIN BRANCH,Outlet,1
 Parent Node Connection,NODE 69,BRANCH,5 ZONE PVAV 2 MAIN BRANCH,Inlet,1
 Parent Node Connection,NODE 78,BRANCH,5 ZONE PVAV 2 MAIN BRANCH,Internal,1
 Parent Node Connection,NODE 75,BRANCH,5 ZONE PVAV 2 MAIN BRANCH,Internal,1
 Parent Node Connection,NODE 74,BRANCH,5 ZONE PVAV 2 MAIN BRANCH,Internal,1
 Parent Node Connection,NODE 70,BRANCH,5 ZONE PVAV 2 MAIN BRANCH,Outlet,1
 Parent Node Connection,NODE 94,BRANCH,MAIN SERVICE WATER LOOP SUPPLY INLET BRANCH,Inlet,1
 Parent Node Connection,NODE 100,BRANCH,MAIN SERVICE WATER LOOP SUPPLY INLET BRANCH,Outlet,1
 Parent Node Connection,NODE 96,BRANCH,MAIN SERVICE WATER LOOP SUPPLY BRANCH 1,Inlet,1
 Parent Node Connection,NODE 101,BRANCH,MAIN SERVICE WATER LOOP SUPPLY BRANCH 1,Outlet,1
 Parent Node Connection,NODE 102,BRANCH,MAIN SERVICE WATER LOOP SUPPLY BRANCH 2,Inlet,1
 Parent Node Connection,NODE 103,BRANCH,MAIN SERVICE WATER LOOP SUPPLY BRANCH 2,Outlet,1
 Parent Node Connection,NODE 105,BRANCH,MAIN SERVICE WATER LOOP SUPPLY OUTLET BRANCH,Inlet,1
 Parent Node Connection,NODE 95,BRANCH,MAIN SERVICE WATER LOOP SUPPLY OUTLET BRANCH,Outlet,1
 Parent Node Connection,NODE 97,BRANCH,MAIN SERVICE WATER LOOP DEMAND INLET BRANCH,Inlet,1
 Parent Node Connection,MAIN SERVICE WATER LOOP DEMAND INLET PIPE NODE,BRANCH,MAIN SERVICE WATER LOOP DEMAND INLET BRANCH,Outlet,1
 Parent Node Connection,NODE 99,BRANCH,MAIN SERVICE WATER LOOP DEMAND BRANCH 1,Inlet,1
 Parent Node Connection,NODE 104,BRANCH,MAIN SERVICE WATER LOOP DEMAND BRANCH 1,Outlet,1
 Parent Node Connection,NODE 107,BRANCH,MAIN SERVICE WATER LOOP DEMAND BRANCH 2,Inlet,1
 Parent Node Connection,NODE 108,BRANCH,MAIN SERVICE WATER LOOP DEMAND BRANCH 2,Outlet,1
 Parent Node Connection,NODE 109,BRANCH,MAIN SERVICE WATER LOOP DEMAND BRANCH 3,Inlet,1
 Parent Node Connection,NODE 110,BRANCH,MAIN SERVICE WATER LOOP DEMAND BRANCH 3,Outlet,1
 Parent Node Connection,NODE 111,BRANCH,MAIN SERVICE WATER LOOP DEMAND BRANCH 4,Inlet,1
 Parent Node Connection,NODE 112,BRANCH,MAIN SERVICE WATER LOOP DEMAND BRANCH 4,Outlet,1
 Parent Node Connection,NODE 113,BRANCH,MAIN SERVICE WATER LOOP DEMAND BRANCH 5,Inlet,1
 Parent Node Connection,NODE 114,BRANCH,MAIN SERVICE WATER LOOP DEMAND BRANCH 5,Outlet,1
 Parent Node Connection,NODE 115,BRANCH,MAIN SERVICE WATER LOOP DEMAND BRANCH 6,Inlet,1
 Parent Node Connection,NODE 116,BRANCH,MAIN SERVICE WATER LOOP DEMAND BRANCH 6,Outlet,1
 Parent Node Connection,NODE 117,BRANCH,MAIN SERVICE WATER LOOP DEMAND BRANCH 7,Inlet,1
 Parent Node Connection,NODE 118,BRANCH,MAIN SERVICE WATER LOOP DEMAND BRANCH 7,Outlet,1
 Parent Node Connection,NODE 119,BRANCH,MAIN SERVICE WATER LOOP DEMAND BRANCH 8,Inlet,1
 Parent Node Connection,NODE 120,BRANCH,MAIN SERVICE WATER LOOP DEMAND BRANCH 8,Outlet,1
 Parent Node Connection,NODE 121,BRANCH,MAIN SERVICE WATER LOOP DEMAND BRANCH 9,Inlet,1
 Parent Node Connection,NODE 122,BRANCH,MAIN SERVICE WATER LOOP DEMAND BRANCH 9,Outlet,1
 Parent Node Connection,NODE 123,BRANCH,MAIN SERVICE WATER LOOP DEMAND BRANCH 10,Inlet,1
 Parent Node Connection,NODE 124,BRANCH,MAIN SERVICE WATER LOOP DEMAND BRANCH 10,Outlet,1
 Parent Node Connection,NODE 125,BRANCH,MAIN SERVICE WATER LOOP DEMAND BRANCH 11,Inlet,1
 Parent Node Connection,NODE 126,BRANCH,MAIN SERVICE WATER LOOP DEMAND BRANCH 11,Outlet,1
 Parent Node Connection,NODE 127,BRANCH,MAIN SERVICE WATER LOOP DEMAND BRANCH 12,Inlet,1
 Parent Node Connection,NODE 128,BRANCH,MAIN SERVICE WATER LOOP DEMAND BRANCH 12,Outlet,1
 Parent Node Connection,NODE 129,BRANCH,MAIN SERVICE WATER LOOP DEMAND BRANCH 13,Inlet,1
 Parent Node Connection,NODE 130,BRANCH,MAIN SERVICE WATER LOOP DEMAND BRANCH 13,Outlet,1
 Parent Node Connection,NODE 131,BRANCH,MAIN SERVICE WATER LOOP DEMAND BRANCH 14,Inlet,1
 Parent Node Connection,NODE 132,BRANCH,MAIN SERVICE WATER LOOP DEMAND BRANCH 14,Outlet,1
 Parent Node Connection,NODE 133,BRANCH,MAIN SERVICE WATER LOOP DEMAND BRANCH 15,Inlet,1
 Parent Node Connection,NODE 134,BRANCH,MAIN SERVICE WATER LOOP DEMAND BRANCH 15,Outlet,1
 Parent Node Connection,NODE 135,BRANCH,MAIN SERVICE WATER LOOP DEMAND BRANCH 16,Inlet,1
 Parent Node Connection,NODE 136,BRANCH,MAIN SERVICE WATER LOOP DEMAND BRANCH 16,Outlet,1
 Parent Node Connection,MAIN SERVICE WATER LOOP DEMAND BYPASS PIPE INLET NODE,BRANCH,MAIN SERVICE WATER LOOP DEMAND BYPASS BRANCH,Inlet,1
 Parent Node Connection,MAIN SERVICE WATER LOOP DEMAND BYPASS PIPE OUTLET NODE,BRANCH,MAIN SERVICE WATER LOOP DEMAND BYPASS BRANCH,Outlet,1
 Parent Node Connection,NODE 106,BRANCH,MAIN SERVICE WATER LOOP DEMAND OUTLET BRANCH,Inlet,1
 Parent Node Connection,NODE 98,BRANCH,MAIN SERVICE WATER LOOP DEMAND OUTLET BRANCH,Outlet,1
 Parent Node Connection,NODE 21,AIRLOOPHVAC:SUPPLYPATH,5 ZONE PVAV NODE 21 SUPPLY PATH,Inlet,1
 Parent Node Connection,NODE 46,AIRLOOPHVAC:SUPPLYPATH,5 ZONE PVAV 1 NODE 46 SUPPLY PATH,Inlet,1
 Parent Node Connection,NODE 71,AIRLOOPHVAC:SUPPLYPATH,5 ZONE PVAV 2 NODE 71 SUPPLY PATH,Inlet,1
 Parent Node Connection,NODE 22,AIRLOOPHVAC:RETURNPATH,5 ZONE PVAV RETURN PATH,Outlet,1
 Parent Node Connection,NODE 47,AIRLOOPHVAC:RETURNPATH,5 ZONE PVAV 1 RETURN PATH,Outlet,1
 Parent Node Connection,NODE 72,AIRLOOPHVAC:RETURNPATH,5 ZONE PVAV 2 RETURN PATH,Outlet,1
 Parent Node Connection,NODE 94,PLANTLOOP,MAIN SERVICE WATER LOOP,Inlet,1
 Parent Node Connection,NODE 95,PLANTLOOP,MAIN SERVICE WATER LOOP,Outlet,1
 Parent Node Connection,NODE 97,PLANTLOOP,MAIN SERVICE WATER LOOP,Inlet,1
 Parent Node Connection,NODE 98,PLANTLOOP,MAIN SERVICE WATER LOOP,Outlet,1
 Parent Node Connection,NODE 95,PLANTLOOP,MAIN SERVICE WATER LOOP,Sensor,1
 Parent Node Connection,NODE 41,ZONEHVAC:AIRDISTRIBUTIONUNIT,ADU CORE_BOTTOM ZN VAV TERMINAL,Outlet,1
 Parent Node Connection,NODE 66,ZONEHVAC:AIRDISTRIBUTIONUNIT,ADU CORE_MID ZN VAV TERMINAL,Outlet,1
 Parent Node Connection,NODE 91,ZONEHVAC:AIRDISTRIBUTIONUNIT,ADU CORE_TOP ZN VAV TERMINAL,Outlet,1
 Parent Node Connection,NODE 23,ZONEHVAC:AIRDISTRIBUTIONUNIT,ADU PERIMETER_BOT_ZN_1 ZN VAV TERMINAL,Outlet,1
 Parent Node Connection,NODE 31,ZONEHVAC:AIRDISTRIBUTIONUNIT,ADU PERIMETER_BOT_ZN_2 ZN VAV TERMINAL,Outlet,1
 Parent Node Connection,NODE 35,ZONEHVAC:AIRDISTRIBUTIONUNIT,ADU PERIMETER_BOT_ZN_3 ZN VAV TERMINAL,Outlet,1
 Parent Node Connection,NODE 38,ZONEHVAC:AIRDISTRIBUTIONUNIT,ADU PERIMETER_BOT_ZN_4 ZN VAV TERMINAL,Outlet,1
 Parent Node Connection,NODE 48,ZONEHVAC:AIRDISTRIBUTIONUNIT,ADU PERIMETER_MID_ZN_1 ZN VAV TERMINAL,Outlet,1
 Parent Node Connection,NODE 56,ZONEHVAC:AIRDISTRIBUTIONUNIT,ADU PERIMETER_MID_ZN_2 ZN VAV TERMINAL,Outlet,1
 Parent Node Connection,NODE 60,ZONEHVAC:AIRDISTRIBUTIONUNIT,ADU PERIMETER_MID_ZN_3 ZN VAV TERMINAL,Outlet,1
 Parent Node Connection,NODE 63,ZONEHVAC:AIRDISTRIBUTIONUNIT,ADU PERIMETER_MID_ZN_4 ZN VAV TERMINAL,Outlet,1
 Parent Node Connection,NODE 73,ZONEHVAC:AIRDISTRIBUTIONUNIT,ADU PERIMETER_TOP_ZN_1 ZN VAV TERMINAL,Outlet,1
 Parent Node Connection,NODE 81,ZONEHVAC:AIRDISTRIBUTIONUNIT,ADU PERIMETER_TOP_ZN_2 ZN VAV TERMINAL,Outlet,1
 Parent Node Connection,NODE 85,ZONEHVAC:AIRDISTRIBUTIONUNIT,ADU PERIMETER_TOP_ZN_3 ZN VAV TERMINAL,Outlet,1
 Parent Node Connection,NODE 88,ZONEHVAC:AIRDISTRIBUTIONUNIT,ADU PERIMETER_TOP_ZN_4 ZN VAV TERMINAL,Outlet,1
 Parent Node Connection,NODE 41,AIRTERMINAL:SINGLEDUCT:VAV:REHEAT,CORE_BOTTOM ZN VAV TERMINAL,Outlet,1
 Parent Node Connection,NODE 66,AIRTERMINAL:SINGLEDUCT:VAV:REHEAT,CORE_MID ZN VAV TERMINAL,Outlet,1
 Parent Node Connection,NODE 91,AIRTERMINAL:SINGLEDUCT:VAV:REHEAT,CORE_TOP ZN VAV TERMINAL,Outlet,1
 Parent Node Connection,NODE 23,AIRTERMINAL:SINGLEDUCT:VAV:REHEAT,PERIMETER_BOT_ZN_1 ZN VAV TERMINAL,Outlet,1
 Parent Node Connection,NODE 31,AIRTERMINAL:SINGLEDUCT:VAV:REHEAT,PERIMETER_BOT_ZN_2 ZN VAV TERMINAL,Outlet,1
 Parent Node Connection,NODE 35,AIRTERMINAL:SINGLEDUCT:VAV:REHEAT,PERIMETER_BOT_ZN_3 ZN VAV TERMINAL,Outlet,1
 Parent Node Connection,NODE 38,AIRTERMINAL:SINGLEDUCT:VAV:REHEAT,PERIMETER_BOT_ZN_4 ZN VAV TERMINAL,Outlet,1
 Parent Node Connection,NODE 48,AIRTERMINAL:SINGLEDUCT:VAV:REHEAT,PERIMETER_MID_ZN_1 ZN VAV TERMINAL,Outlet,1
 Parent Node Connection,NODE 56,AIRTERMINAL:SINGLEDUCT:VAV:REHEAT,PERIMETER_MID_ZN_2 ZN VAV TERMINAL,Outlet,1
 Parent Node Connection,NODE 60,AIRTERMINAL:SINGLEDUCT:VAV:REHEAT,PERIMETER_MID_ZN_3 ZN VAV TERMINAL,Outlet,1
 Parent Node Connection,NODE 63,AIRTERMINAL:SINGLEDUCT:VAV:REHEAT,PERIMETER_MID_ZN_4 ZN VAV TERMINAL,Outlet,1
 Parent Node Connection,NODE 73,AIRTERMINAL:SINGLEDUCT:VAV:REHEAT,PERIMETER_TOP_ZN_1 ZN VAV TERMINAL,Outlet,1
 Parent Node Connection,NODE 81,AIRTERMINAL:SINGLEDUCT:VAV:REHEAT,PERIMETER_TOP_ZN_2 ZN VAV TERMINAL,Outlet,1
 Parent Node Connection,NODE 85,AIRTERMINAL:SINGLEDUCT:VAV:REHEAT,PERIMETER_TOP_ZN_3 ZN VAV TERMINAL,Outlet,1
 Parent Node Connection,NODE 88,AIRTERMINAL:SINGLEDUCT:VAV:REHEAT,PERIMETER_TOP_ZN_4 ZN VAV TERMINAL,Outlet,1
 Parent Node Connection,NODE 19,AIRLOOPHVAC,5 ZONE PVAV,Inlet,1
 Parent Node Connection,NODE 22,AIRLOOPHVAC,5 ZONE PVAV,Outlet,1
 Parent Node Connection,NODE 21,AIRLOOPHVAC,5 ZONE PVAV,Inlet,1
 Parent Node Connection,NODE 20,AIRLOOPHVAC,5 ZONE PVAV,Outlet,1
 Parent Node Connection,NODE 44,AIRLOOPHVAC,5 ZONE PVAV 1,Inlet,1
 Parent Node Connection,NODE 47,AIRLOOPHVAC,5 ZONE PVAV 1,Outlet,1
 Parent Node Connection,NODE 46,AIRLOOPHVAC,5 ZONE PVAV 1,Inlet,1
 Parent Node Connection,NODE 45,AIRLOOPHVAC,5 ZONE PVAV 1,Outlet,1
 Parent Node Connection,NODE 69,AIRLOOPHVAC,5 ZONE PVAV 2,Inlet,1
 Parent Node Connection,NODE 72,AIRLOOPHVAC,5 ZONE PVAV 2,Outlet,1
 Parent Node Connection,NODE 71,AIRLOOPHVAC,5 ZONE PVAV 2,Inlet,1
 Parent Node Connection,NODE 70,AIRLOOPHVAC,5 ZONE PVAV 2,Outlet,1
 Parent Node Connection,NODE 28,COILSYSTEM:COOLING:DX,5 ZONE PVAV 2SPD DX CLG COIL COILSYSTEM,Inlet,1
 Parent Node Connection,NODE 25,COILSYSTEM:COOLING:DX,5 ZONE PVAV 2SPD DX CLG COIL COILSYSTEM,Outlet,1
 Parent Node Connection,NODE 25,COILSYSTEM:COOLING:DX,5 ZONE PVAV 2SPD DX CLG COIL COILSYSTEM,Sensor,1
 Parent Node Connection,NODE 53,COILSYSTEM:COOLING:DX,5 ZONE PVAV 1 2SPD DX CLG COIL COILSYSTEM,Inlet,1
 Parent Node Connection,NODE 50,COILSYSTEM:COOLING:DX,5 ZONE PVAV 1 2SPD DX CLG COIL COILSYSTEM,Outlet,1
 Parent Node Connection,NODE 50,COILSYSTEM:COOLING:DX,5 ZONE PVAV 1 2SPD DX CLG COIL COILSYSTEM,Sensor,1
 Parent Node Connection,NODE 78,COILSYSTEM:COOLING:DX,5 ZONE PVAV 2 2SPD DX CLG COIL COILSYSTEM,Inlet,1
 Parent Node Connection,NODE 75,COILSYSTEM:COOLING:DX,5 ZONE PVAV 2 2SPD DX CLG COIL COILSYSTEM,Outlet,1
 Parent Node Connection,NODE 75,COILSYSTEM:COOLING:DX,5 ZONE PVAV 2 2SPD DX CLG COIL COILSYSTEM,Sensor,1
! ===============================================================
! <#Non-Parent Node Connections>,<Number of Non-Parent Node Connections>
 #Non-Parent Node Connections,318
! <Non-Parent Node Connection>,<Node Name>,<Node ObjectType>,<Node ObjectName>,<Node ConnectionType>,<Node FluidStream>
 Non-Parent Node Connection,NODE 1,ZONEHVAC:EQUIPMENTCONNECTIONS,CORE_BOTTOM ZN,ZoneNode,1
 Non-Parent Node Connection,NODE 41,ZONEHVAC:EQUIPMENTCONNECTIONS,CORE_BOTTOM ZN,ZoneInlet,1
 Non-Parent Node Connection,NODE 42,ZONEHVAC:EQUIPMENTCONNECTIONS,CORE_BOTTOM ZN,ZoneReturn,1
 Non-Parent Node Connection,NODE 2,ZONEHVAC:EQUIPMENTCONNECTIONS,CORE_MID ZN,ZoneNode,1
 Non-Parent Node Connection,NODE 66,ZONEHVAC:EQUIPMENTCONNECTIONS,CORE_MID ZN,ZoneInlet,1
 Non-Parent Node Connection,NODE 67,ZONEHVAC:EQUIPMENTCONNECTIONS,CORE_MID ZN,ZoneReturn,1
 Non-Parent Node Connection,NODE 3,ZONEHVAC:EQUIPMENTCONNECTIONS,CORE_TOP ZN,ZoneNode,1
 Non-Parent Node Connection,NODE 91,ZONEHVAC:EQUIPMENTCONNECTIONS,CORE_TOP ZN,ZoneInlet,1
 Non-Parent Node Connection,NODE 92,ZONEHVAC:EQUIPMENTCONNECTIONS,CORE_TOP ZN,ZoneReturn,1
 Non-Parent Node Connection,NODE 6,ZONEHVAC:EQUIPMENTCONNECTIONS,PERIMETER_BOT_ZN_1 ZN,ZoneNode,1
 Non-Parent Node Connection,NODE 23,ZONEHVAC:EQUIPMENTCONNECTIONS,PERIMETER_BOT_ZN_1 ZN,ZoneInlet,1
 Non-Parent Node Connection,NODE 29,ZONEHVAC:EQUIPMENTCONNECTIONS,PERIMETER_BOT_ZN_1 ZN,ZoneReturn,1
 Non-Parent Node Connection,NODE 7,ZONEHVAC:EQUIPMENTCONNECTIONS,PERIMETER_BOT_ZN_2 ZN,ZoneNode,1
 Non-Parent Node Connection,NODE 31,ZONEHVAC:EQUIPMENTCONNECTIONS,PERIMETER_BOT_ZN_2 ZN,ZoneInlet,1
 Non-Parent Node Connection,NODE 33,ZONEHVAC:EQUIPMENTCONNECTIONS,PERIMETER_BOT_ZN_2 ZN,ZoneReturn,1
 Non-Parent Node Connection,NODE 8,ZONEHVAC:EQUIPMENTCONNECTIONS,PERIMETER_BOT_ZN_3 ZN,ZoneNode,1
 Non-Parent Node Connection,NODE 35,ZONEHVAC:EQUIPMENTCONNECTIONS,PERIMETER_BOT_ZN_3 ZN,ZoneInlet,1
 Non-Parent Node Connection,NODE 36,ZONEHVAC:EQUIPMENTCONNECTIONS,PERIMETER_BOT_ZN_3 ZN,ZoneReturn,1
 Non-Parent Node Connection,NODE 9,ZONEHVAC:EQUIPMENTCONNECTIONS,PERIMETER_BOT_ZN_4 ZN,ZoneNode,1
 Non-Parent Node Connection,NODE 38,ZONEHVAC:EQUIPMENTCONNECTIONS,PERIMETER_BOT_ZN_4 ZN,ZoneInlet,1
 Non-Parent Node Connection,NODE 39,ZONEHVAC:EQUIPMENTCONNECTIONS,PERIMETER_BOT_ZN_4 ZN,ZoneReturn,1
 Non-Parent Node Connection,NODE 10,ZONEHVAC:EQUIPMENTCONNECTIONS,PERIMETER_MID_ZN_1 ZN,ZoneNode,1
 Non-Parent Node Connection,NODE 48,ZONEHVAC:EQUIPMENTCONNECTIONS,PERIMETER_MID_ZN_1 ZN,ZoneInlet,1
 Non-Parent Node Connection,NODE 54,ZONEHVAC:EQUIPMENTCONNECTIONS,PERIMETER_MID_ZN_1 ZN,ZoneReturn,1
 Non-Parent Node Connection,NODE 11,ZONEHVAC:EQUIPMENTCONNECTIONS,PERIMETER_MID_ZN_2 ZN,ZoneNode,1
 Non-Parent Node Connection,NODE 56,ZONEHVAC:EQUIPMENTCONNECTIONS,PERIMETER_MID_ZN_2 ZN,ZoneInlet,1
 Non-Parent Node Connection,NODE 58,ZONEHVAC:EQUIPMENTCONNECTIONS,PERIMETER_MID_ZN_2 ZN,ZoneReturn,1
 Non-Parent Node Connection,NODE 12,ZONEHVAC:EQUIPMENTCONNECTIONS,PERIMETER_MID_ZN_3 ZN,ZoneNode,1
 Non-Parent Node Connection,NODE 60,ZONEHVAC:EQUIPMENTCONNECTIONS,PERIMETER_MID_ZN_3 ZN,ZoneInlet,1
 Non-Parent Node Connection,NODE 61,ZONEHVAC:EQUIPMENTCONNECTIONS,PERIMETER_MID_ZN_3 ZN,ZoneReturn,1
 Non-Parent Node Connection,NODE 13,ZONEHVAC:EQUIPMENTCONNECTIONS,PERIMETER_MID_ZN_4 ZN,ZoneNode,1
 Non-Parent Node Connection,NODE 63,ZONEHVAC:EQUIPMENTCONNECTIONS,PERIMETER_MID_ZN_4 ZN,ZoneInlet,1
 Non-Parent Node Connection,NODE 64,ZONEHVAC:EQUIPMENTCONNECTIONS,PERIMETER_MID_ZN_4 ZN,ZoneReturn,1
 Non-Parent Node Connection,NODE 14,ZONEHVAC:EQUIPMENTCONNECTIONS,PERIMETER_TOP_ZN_1 ZN,ZoneNode,1
 Non-Parent Node Connection,NODE 73,ZONEHVAC:EQUIPMENTCONNECTIONS,PERIMETER_TOP_ZN_1 ZN,ZoneInlet,1
 Non-Parent Node Connection,NODE 79,ZONEHVAC:EQUIPMENTCONNECTIONS,PERIMETER_TOP_ZN_1 ZN,ZoneReturn,1
 Non-Parent Node Connection,NODE 15,ZONEHVAC:EQUIPMENTCONNECTIONS,PERIMETER_TOP_ZN_2 ZN,ZoneNode,1
 Non-Parent Node Connection,NODE 81,ZONEHVAC:EQUIPMENTCONNECTIONS,PERIMETER_TOP_ZN_2 ZN,ZoneInlet,1
 Non-Parent Node Connection,NODE 83,ZONEHVAC:EQUIPMENTCONNECTIONS,PERIMETER_TOP_ZN_2 ZN,ZoneReturn,1
 Non-Parent Node Connection,NODE 16,ZONEHVAC:EQUIPMENTCONNECTIONS,PERIMETER_TOP_ZN_3 ZN,ZoneNode,1
 Non-Parent Node Connection,NODE 85,ZONEHVAC:EQUIPMENTCONNECTIONS,PERIMETER_TOP_ZN_3 ZN,ZoneInlet,1
 Non-Parent Node Connection,NODE 86,ZONEHVAC:EQUIPMENTCONNECTIONS,PERIMETER_TOP_ZN_3 ZN,ZoneReturn,1
 Non-Parent Node Connection,NODE 17,ZONEHVAC:EQUIPMENTCONNECTIONS,PERIMETER_TOP_ZN_4 ZN,ZoneNode,1
 Non-Parent Node Connection,NODE 88,ZONEHVAC:EQUIPMENTCONNECTIONS,PERIMETER_TOP_ZN_4 ZN,ZoneInlet,1
 Non-Parent Node Connection,NODE 89,ZONEHVAC:EQUIPMENTCONNECTIONS,PERIMETER_TOP_ZN_4 ZN,ZoneReturn,1
 Non-Parent Node Connection,NODE 96,WATERHEATER:MIXED,100GAL NATURAL GAS WATER HEATER - 100KBTU/HR,Inlet,1
 Non-Parent Node Connection,NODE 101,WATERHEATER:MIXED,100GAL NATURAL GAS WATER HEATER - 100KBTU/HR,Outlet,1
 Non-Parent Node Connection,NODE 26,OUTDOORAIR:NODELIST,OutdoorAir:NodeList,OutdoorAir,1
 Non-Parent Node Connection,NODE 51,OUTDOORAIR:NODELIST,OutdoorAir:NodeList,OutdoorAir,2
 Non-Parent Node Connection,NODE 76,OUTDOORAIR:NODELIST,OutdoorAir:NodeList,OutdoorAir,3
 Non-Parent Node Connection,MODEL OUTDOOR AIR NODE,OUTDOORAIR:NODE,OutdoorAir:Node,OutdoorAir,4
 Non-Parent Node Connection,NODE 20,SETPOINTMANAGER:SCHEDULED,5 ZONE PVAV SUPPLY AIR SETPOINT MANAGER,Setpoint,1
 Non-Parent Node Connection,NODE 45,SETPOINTMANAGER:SCHEDULED,5 ZONE PVAV 1 SUPPLY AIR SETPOINT MANAGER,Setpoint,1
 Non-Parent Node Connection,NODE 70,SETPOINTMANAGER:SCHEDULED,5 ZONE PVAV 2 SUPPLY AIR SETPOINT MANAGER,Setpoint,1
 Non-Parent Node Connection,NODE 95,SETPOINTMANAGER:SCHEDULED,SERVICE HOT WATER SETPOINT MANAGER,Setpoint,1
 Non-Parent Node Connection,NODE 20,SETPOINTMANAGER:MIXEDAIR,NODE 28 OS DEFAULT SPM,Sensor,1
 Non-Parent Node Connection,NODE 24,SETPOINTMANAGER:MIXEDAIR,NODE 28 OS DEFAULT SPM,Sensor,1
 Non-Parent Node Connection,NODE 28,SETPOINTMANAGER:MIXEDAIR,NODE 28 OS DEFAULT SPM,Setpoint,1
 Non-Parent Node Connection,NODE 20,SETPOINTMANAGER:MIXEDAIR,NODE 25 OS DEFAULT SPM,Sensor,1
 Non-Parent Node Connection,NODE 24,SETPOINTMANAGER:MIXEDAIR,NODE 25 OS DEFAULT SPM,Sensor,1
 Non-Parent Node Connection,NODE 25,SETPOINTMANAGER:MIXEDAIR,NODE 25 OS DEFAULT SPM,Setpoint,1
 Non-Parent Node Connection,NODE 20,SETPOINTMANAGER:MIXEDAIR,NODE 24 OS DEFAULT SPM,Sensor,1
 Non-Parent Node Connection,NODE 24,SETPOINTMANAGER:MIXEDAIR,NODE 24 OS DEFAULT SPM,Sensor,1
 Non-Parent Node Connection,NODE 24,SETPOINTMANAGER:MIXEDAIR,NODE 24 OS DEFAULT SPM,Setpoint,1
 Non-Parent Node Connection,NODE 45,SETPOINTMANAGER:MIXEDAIR,NODE 53 OS DEFAULT SPM,Sensor,1
 Non-Parent Node Connection,NODE 49,SETPOINTMANAGER:MIXEDAIR,NODE 53 OS DEFAULT SPM,Sensor,1
 Non-Parent Node Connection,NODE 53,SETPOINTMANAGER:MIXEDAIR,NODE 53 OS DEFAULT SPM,Setpoint,1
 Non-Parent Node Connection,NODE 45,SETPOINTMANAGER:MIXEDAIR,NODE 50 OS DEFAULT SPM,Sensor,1
 Non-Parent Node Connection,NODE 49,SETPOINTMANAGER:MIXEDAIR,NODE 50 OS DEFAULT SPM,Sensor,1
 Non-Parent Node Connection,NODE 50,SETPOINTMANAGER:MIXEDAIR,NODE 50 OS DEFAULT SPM,Setpoint,1
 Non-Parent Node Connection,NODE 45,SETPOINTMANAGER:MIXEDAIR,NODE 49 OS DEFAULT SPM,Sensor,1
 Non-Parent Node Connection,NODE 49,SETPOINTMANAGER:MIXEDAIR,NODE 49 OS DEFAULT SPM,Sensor,1
 Non-Parent Node Connection,NODE 49,SETPOINTMANAGER:MIXEDAIR,NODE 49 OS DEFAULT SPM,Setpoint,1
 Non-Parent Node Connection,NODE 70,SETPOINTMANAGER:MIXEDAIR,NODE 78 OS DEFAULT SPM,Sensor,1
 Non-Parent Node Connection,NODE 74,SETPOINTMANAGER:MIXEDAIR,NODE 78 OS DEFAULT SPM,Sensor,1
 Non-Parent Node Connection,NODE 78,SETPOINTMANAGER:MIXEDAIR,NODE 78 OS DEFAULT SPM,Setpoint,1
 Non-Parent Node Connection,NODE 70,SETPOINTMANAGER:MIXEDAIR,NODE 75 OS DEFAULT SPM,Sensor,1
 Non-Parent Node Connection,NODE 74,SETPOINTMANAGER:MIXEDAIR,NODE 75 OS DEFAULT SPM,Sensor,1
 Non-Parent Node Connection,NODE 75,SETPOINTMANAGER:MIXEDAIR,NODE 75 OS DEFAULT SPM,Setpoint,1
 Non-Parent Node Connection,NODE 70,SETPOINTMANAGER:MIXEDAIR,NODE 74 OS DEFAULT SPM,Sensor,1
 Non-Parent Node Connection,NODE 74,SETPOINTMANAGER:MIXEDAIR,NODE 74 OS DEFAULT SPM,Sensor,1
 Non-Parent Node Connection,NODE 74,SETPOINTMANAGER:MIXEDAIR,NODE 74 OS DEFAULT SPM,Setpoint,1
 Non-Parent Node Connection,NODE 102,PIPE:ADIABATIC,PIPE ADIABATIC 1,Inlet,1
 Non-Parent Node Connection,NODE 103,PIPE:ADIABATIC,PIPE ADIABATIC 1,Outlet,1
 Non-Parent Node Connection,NODE 105,PIPE:ADIABATIC,PIPE ADIABATIC 3,Inlet,1
 Non-Parent Node Connection,NODE 95,PIPE:ADIABATIC,PIPE ADIABATIC 3,Outlet,1
 Non-Parent Node Connection,NODE 97,PIPE:ADIABATIC,MAIN SERVICE WATER LOOP DEMAND INLET PIPE,Inlet,1
 Non-Parent Node Connection,MAIN SERVICE WATER LOOP DEMAND INLET PIPE NODE,PIPE:ADIABATIC,MAIN SERVICE WATER LOOP DEMAND INLET PIPE,Outlet,1
 Non-Parent Node Connection,NODE 99,PIPE:ADIABATIC,PIPE ADIABATIC 2,Inlet,1
 Non-Parent Node Connection,NODE 104,PIPE:ADIABATIC,PIPE ADIABATIC 2,Outlet,1
 Non-Parent Node Connection,MAIN SERVICE WATER LOOP DEMAND BYPASS PIPE INLET NODE,PIPE:ADIABATIC,MAIN SERVICE WATER LOOP DEMAND BYPASS PIPE,Inlet,1
 Non-Parent Node Connection,MAIN SERVICE WATER LOOP DEMAND BYPASS PIPE OUTLET NODE,PIPE:ADIABATIC,MAIN SERVICE WATER LOOP DEMAND BYPASS PIPE,Outlet,1
 Non-Parent Node Connection,NODE 106,PIPE:ADIABATIC,PIPE ADIABATIC 4,Inlet,1
 Non-Parent Node Connection,NODE 98,PIPE:ADIABATIC,PIPE ADIABATIC 4,Outlet,1
 Non-Parent Node Connection,MAIN SERVICE WATER LOOP DEMAND INLET PIPE NODE,CONNECTOR:SPLITTER,MAIN SERVICE WATER LOOP DEMAND SPLITTER,Inlet,1
 Non-Parent Node Connection,NODE 99,CONNECTOR:SPLITTER,MAIN SERVICE WATER LOOP DEMAND SPLITTER,Outlet,1
 Non-Parent Node Connection,NODE 107,CONNECTOR:SPLITTER,MAIN SERVICE WATER LOOP DEMAND SPLITTER,Outlet,1
 Non-Parent Node Connection,NODE 109,CONNECTOR:SPLITTER,MAIN SERVICE WATER LOOP DEMAND SPLITTER,Outlet,1
 Non-Parent Node Connection,NODE 111,CONNECTOR:SPLITTER,MAIN SERVICE WATER LOOP DEMAND SPLITTER,Outlet,1
 Non-Parent Node Connection,NODE 113,CONNECTOR:SPLITTER,MAIN SERVICE WATER LOOP DEMAND SPLITTER,Outlet,1
 Non-Parent Node Connection,NODE 115,CONNECTOR:SPLITTER,MAIN SERVICE WATER LOOP DEMAND SPLITTER,Outlet,1
 Non-Parent Node Connection,NODE 117,CONNECTOR:SPLITTER,MAIN SERVICE WATER LOOP DEMAND SPLITTER,Outlet,1
 Non-Parent Node Connection,NODE 119,CONNECTOR:SPLITTER,MAIN SERVICE WATER LOOP DEMAND SPLITTER,Outlet,1
 Non-Parent Node Connection,NODE 121,CONNECTOR:SPLITTER,MAIN SERVICE WATER LOOP DEMAND SPLITTER,Outlet,1
 Non-Parent Node Connection,NODE 123,CONNECTOR:SPLITTER,MAIN SERVICE WATER LOOP DEMAND SPLITTER,Outlet,1
 Non-Parent Node Connection,NODE 125,CONNECTOR:SPLITTER,MAIN SERVICE WATER LOOP DEMAND SPLITTER,Outlet,1
 Non-Parent Node Connection,NODE 127,CONNECTOR:SPLITTER,MAIN SERVICE WATER LOOP DEMAND SPLITTER,Outlet,1
 Non-Parent Node Connection,NODE 129,CONNECTOR:SPLITTER,MAIN SERVICE WATER LOOP DEMAND SPLITTER,Outlet,1
 Non-Parent Node Connection,NODE 131,CONNECTOR:SPLITTER,MAIN SERVICE WATER LOOP DEMAND SPLITTER,Outlet,1
 Non-Parent Node Connection,NODE 133,CONNECTOR:SPLITTER,MAIN SERVICE WATER LOOP DEMAND SPLITTER,Outlet,1
 Non-Parent Node Connection,NODE 135,CONNECTOR:SPLITTER,MAIN SERVICE WATER LOOP DEMAND SPLITTER,Outlet,1
 Non-Parent Node Connection,MAIN SERVICE WATER LOOP DEMAND BYPASS PIPE INLET NODE,CONNECTOR:SPLITTER,MAIN SERVICE WATER LOOP DEMAND SPLITTER,Outlet,1
 Non-Parent Node Connection,NODE 106,CONNECTOR:MIXER,MAIN SERVICE WATER LOOP DEMAND MIXER,Outlet,1
 Non-Parent Node Connection,NODE 104,CONNECTOR:MIXER,MAIN SERVICE WATER LOOP DEMAND MIXER,Inlet,1
 Non-Parent Node Connection,NODE 108,CONNECTOR:MIXER,MAIN SERVICE WATER LOOP DEMAND MIXER,Inlet,1
 Non-Parent Node Connection,NODE 110,CONNECTOR:MIXER,MAIN SERVICE WATER LOOP DEMAND MIXER,Inlet,1
 Non-Parent Node Connection,NODE 112,CONNECTOR:MIXER,MAIN SERVICE WATER LOOP DEMAND MIXER,Inlet,1
[...]
 Non-Parent Node Connection,NODE 96,CONNECTOR:SPLITTER,MAIN SERVICE WATER LOOP SUPPLY SPLITTER,Outlet,1
 Non-Parent Node Connection,NODE 102,CONNECTOR:SPLITTER,MAIN SERVICE WATER LOOP SUPPLY SPLITTER,Outlet,1
 Non-Parent Node Connection,NODE 105,CONNECTOR:MIXER,MAIN SERVICE WATER LOOP SUPPLY MIXER,Outlet,1
 Non-Parent Node Connection,NODE 101,CONNECTOR:MIXER,MAIN SERVICE WATER LOOP SUPPLY MIXER,Inlet,1
 Non-Parent Node Connection,NODE 103,CONNECTOR:MIXER,MAIN SERVICE WATER LOOP SUPPLY MIXER,Inlet,1
 Non-Parent Node Connection,NODE 107,WATERUSE:CONNECTIONS,WATER USE CONNECTIONS 1,Inlet,1
 Non-Parent Node Connection,NODE 108,WATERUSE:CONNECTIONS,WATER USE CONNECTIONS 1,Outlet,1
 Non-Parent Node Connection,NODE 109,WATERUSE:CONNECTIONS,WATER USE CONNECTIONS 2,Inlet,1
 Non-Parent Node Connection,NODE 110,WATERUSE:CONNECTIONS,WATER USE CONNECTIONS 2,Outlet,1
 Non-Parent Node Connection,NODE 111,WATERUSE:CONNECTIONS,WATER USE CONNECTIONS 3,Inlet,1
 Non-Parent Node Connection,NODE 112,WATERUSE:CONNECTIONS,WATER USE CONNECTIONS 3,Outlet,1
 Non-Parent Node Connection,NODE 113,WATERUSE:CONNECTIONS,WATER USE CONNECTIONS 4,Inlet,1
 Non-Parent Node Connection,NODE 114,WATERUSE:CONNECTIONS,WATER USE CONNECTIONS 4,Outlet,1
 Non-Parent Node Connection,NODE 115,WATERUSE:CONNECTIONS,WATER USE CONNECTIONS 5,Inlet,1
 Non-Parent Node Connection,NODE 116,WATERUSE:CONNECTIONS,WATER USE CONNECTIONS 5,Outlet,1
 Non-Parent Node Connection,NODE 117,WATERUSE:CONNECTIONS,WATER USE CONNECTIONS 6,Inlet,1
 Non-Parent Node Connection,NODE 118,WATERUSE:CONNECTIONS,WATER USE CONNECTIONS 6,Outlet,1
 Non-Parent Node Connection,NODE 119,WATERUSE:CONNECTIONS,WATER USE CONNECTIONS 7,Inlet,1
 Non-Parent Node Connection,NODE 120,WATERUSE:CONNECTIONS,WATER USE CONNECTIONS 7,Outlet,1
 Non-Parent Node Connection,NODE 121,WATERUSE:CONNECTIONS,WATER USE CONNECTIONS 8,Inlet,1
 Non-Parent Node Connection,NODE 122,WATERUSE:CONNECTIONS,WATER USE CONNECTIONS 8,Outlet,1
 Non-Parent Node Connection,NODE 123,WATERUSE:CONNECTIONS,WATER USE CONNECTIONS 9,Inlet,1
 Non-Parent Node Connection,NODE 124,WATERUSE:CONNECTIONS,WATER USE CONNECTIONS 9,Outlet,1
 Non-Parent Node Connection,NODE 125,WATERUSE:CONNECTIONS,WATER USE CONNECTIONS 10,Inlet,1
 Non-Parent Node Connection,NODE 126,WATERUSE:CONNECTIONS,WATER USE CONNECTIONS 10,Outlet,1
 Non-Parent Node Connection,NODE 127,WATERUSE:CONNECTIONS,WATER USE CONNECTIONS 11,Inlet,1
 Non-Parent Node Connection,NODE 128,WATERUSE:CONNECTIONS,WATER USE CONNECTIONS 11,Outlet,1
 Non-Parent Node Connection,NODE 129,WATERUSE:CONNECTIONS,WATER USE CONNECTIONS 12,Inlet,1
 Non-Parent Node Connection,NODE 130,WATERUSE:CONNECTIONS,WATER USE CONNECTIONS 12,Outlet,1
 Non-Parent Node Connection,NODE 131,WATERUSE:CONNECTIONS,WATER USE CONNECTIONS 13,Inlet,1
 Non-Parent Node Connection,NODE 132,WATERUSE:CONNECTIONS,WATER USE CONNECTIONS 13,Outlet,1
 Non-Parent Node Connection,NODE 133,WATERUSE:CONNECTIONS,WATER USE CONNECTIONS 14,Inlet,1
 Non-Parent Node Connection,NODE 134,WATERUSE:CONNECTIONS,WATER USE CONNECTIONS 14,Outlet,1
 Non-Parent Node Connection,NODE 135,WATERUSE:CONNECTIONS,WATER USE CONNECTIONS 15,Inlet,1
 Non-Parent Node Connection,NODE 136,WATERUSE:CONNECTIONS,WATER USE CONNECTIONS 15,Outlet,1
 Non-Parent Node Connection,NODE 21,AIRLOOPHVAC:ZONESPLITTER,AIR LOOP HVAC ZONE SPLITTER 1,Inlet,1
 Non-Parent Node Connection,NODE 30,AIRLOOPHVAC:ZONESPLITTER,AIR LOOP HVAC ZONE SPLITTER 1,Outlet,1
 Non-Parent Node Connection,NODE 34,AIRLOOPHVAC:ZONESPLITTER,AIR LOOP HVAC ZONE SPLITTER 1,Outlet,1
 Non-Parent Node Connection,NODE 37,AIRLOOPHVAC:ZONESPLITTER,AIR LOOP HVAC ZONE SPLITTER 1,Outlet,1
 Non-Parent Node Connection,NODE 40,AIRLOOPHVAC:ZONESPLITTER,AIR LOOP HVAC ZONE SPLITTER 1,Outlet,1
 Non-Parent Node Connection,NODE 43,AIRLOOPHVAC:ZONESPLITTER,AIR LOOP HVAC ZONE SPLITTER 1,Outlet,1
 Non-Parent Node Connection,NODE 46,AIRLOOPHVAC:ZONESPLITTER,AIR LOOP HVAC ZONE SPLITTER 2,Inlet,1
 Non-Parent Node Connection,NODE 55,AIRLOOPHVAC:ZONESPLITTER,AIR LOOP HVAC ZONE SPLITTER 2,Outlet,1
 Non-Parent Node Connection,NODE 59,AIRLOOPHVAC:ZONESPLITTER,AIR LOOP HVAC ZONE SPLITTER 2,Outlet,1
 Non-Parent Node Connection,NODE 62,AIRLOOPHVAC:ZONESPLITTER,AIR LOOP HVAC ZONE SPLITTER 2,Outlet,1
 Non-Parent Node Connection,NODE 65,AIRLOOPHVAC:ZONESPLITTER,AIR LOOP HVAC ZONE SPLITTER 2,Outlet,1
 Non-Parent Node Connection,NODE 68,AIRLOOPHVAC:ZONESPLITTER,AIR LOOP HVAC ZONE SPLITTER 2,Outlet,1
 Non-Parent Node Connection,NODE 71,AIRLOOPHVAC:ZONESPLITTER,AIR LOOP HVAC ZONE SPLITTER 3,Inlet,1
 Non-Parent Node Connection,NODE 80,AIRLOOPHVAC:ZONESPLITTER,AIR LOOP HVAC ZONE SPLITTER 3,Outlet,1
 Non-Parent Node Connection,NODE 84,AIRLOOPHVAC:ZONESPLITTER,AIR LOOP HVAC ZONE SPLITTER 3,Outlet,1
 Non-Parent Node Connection,NODE 87,AIRLOOPHVAC:ZONESPLITTER,AIR LOOP HVAC ZONE SPLITTER 3,Outlet,1
 Non-Parent Node Connection,NODE 90,AIRLOOPHVAC:ZONESPLITTER,AIR LOOP HVAC ZONE SPLITTER 3,Outlet,1
 Non-Parent Node Connection,NODE 93,AIRLOOPHVAC:ZONESPLITTER,AIR LOOP HVAC ZONE SPLITTER 3,Outlet,1
 Non-Parent Node Connection,CORE_BOTTOM ZN VAV TERMINAL DAMPER OUTLET,AIRTERMINAL:SINGLEDUCT:VAV:REHEAT,CORE_BOTTOM ZN VAV TERMINAL,Outlet,1
 Non-Parent Node Connection,NODE 43,AIRTERMINAL:SINGLEDUCT:VAV:REHEAT,CORE_BOTTOM ZN VAV TERMINAL,Inlet,1
 Non-Parent Node Connection,CORE_MID ZN VAV TERMINAL DAMPER OUTLET,AIRTERMINAL:SINGLEDUCT:VAV:REHEAT,CORE_MID ZN VAV TERMINAL,Outlet,1
 Non-Parent Node Connection,NODE 68,AIRTERMINAL:SINGLEDUCT:VAV:REHEAT,CORE_MID ZN VAV TERMINAL,Inlet,1
 Non-Parent Node Connection,CORE_TOP ZN VAV TERMINAL DAMPER OUTLET,AIRTERMINAL:SINGLEDUCT:VAV:REHEAT,CORE_TOP ZN VAV TERMINAL,Outlet,1
 Non-Parent Node Connection,NODE 93,AIRTERMINAL:SINGLEDUCT:VAV:REHEAT,CORE_TOP ZN VAV TERMINAL,Inlet,1
 Non-Parent Node Connection,PERIMETER_BOT_ZN_1 ZN VAV TERMINAL DAMPER OUTLET,AIRTERMINAL:SINGLEDUCT:VAV:REHEAT,PERIMETER_BOT_ZN_1 ZN VAV TERMINAL,Outlet,1
 Non-Parent Node Connection,NODE 30,AIRTERMINAL:SINGLEDUCT:VAV:REHEAT,PERIMETER_BOT_ZN_1 ZN VAV TERMINAL,Inlet,1
 Non-Parent Node Connection,PERIMETER_BOT_ZN_2 ZN VAV TERMINAL DAMPER OUTLET,AIRTERMINAL:SINGLEDUCT:VAV:REHEAT,PERIMETER_BOT_ZN_2 ZN VAV TERMINAL,Outlet,1
 Non-Parent Node Connection,NODE 34,AIRTERMINAL:SINGLEDUCT:VAV:REHEAT,PERIMETER_BOT_ZN_2 ZN VAV TERMINAL,Inlet,1
 Non-Parent Node Connection,PERIMETER_BOT_ZN_3 ZN VAV TERMINAL DAMPER OUTLET,AIRTERMINAL:SINGLEDUCT:VAV:REHEAT,PERIMETER_BOT_ZN_3 ZN VAV TERMINAL,Outlet,1
 Non-Parent Node Connection,NODE 37,AIRTERMINAL:SINGLEDUCT:VAV:REHEAT,PERIMETER_BOT_ZN_3 ZN VAV TERMINAL,Inlet,1
 Non-Parent Node Connection,PERIMETER_BOT_ZN_4 ZN VAV TERMINAL DAMPER OUTLET,AIRTERMINAL:SINGLEDUCT:VAV:REHEAT,PERIMETER_BOT_ZN_4 ZN VAV TERMINAL,Outlet,1
 Non-Parent Node Connection,NODE 40,AIRTERMINAL:SINGLEDUCT:VAV:REHEAT,PERIMETER_BOT_ZN_4 ZN VAV TERMINAL,Inlet,1
 Non-Parent Node Connection,PERIMETER_MID_ZN_1 ZN VAV TERMINAL DAMPER OUTLET,AIRTERMINAL:SINGLEDUCT:VAV:REHEAT,PERIMETER_MID_ZN_1 ZN VAV TERMINAL,Outlet,1
 Non-Parent Node Connection,NODE 55,AIRTERMINAL:SINGLEDUCT:VAV:REHEAT,PERIMETER_MID_ZN_1 ZN VAV TERMINAL,Inlet,1
 Non-Parent Node Connection,PERIMETER_MID_ZN_2 ZN VAV TERMINAL DAMPER OUTLET,AIRTERMINAL:SINGLEDUCT:VAV:REHEAT,PERIMETER_MID_ZN_2 ZN VAV TERMINAL,Outlet,1
 Non-Parent Node Connection,NODE 59,AIRTERMINAL:SINGLEDUCT:VAV:REHEAT,PERIMETER_MID_ZN_2 ZN VAV TERMINAL,Inlet,1
 Non-Parent Node Connection,PERIMETER_MID_ZN_3 ZN VAV TERMINAL DAMPER OUTLET,AIRTERMINAL:SINGLEDUCT:VAV:REHEAT,PERIMETER_MID_ZN_3 ZN VAV TERMINAL,Outlet,1
 Non-Parent Node Connection,NODE 62,AIRTERMINAL:SINGLEDUCT:VAV:REHEAT,PERIMETER_MID_ZN_3 ZN VAV TERMINAL,Inlet,1
 Non-Parent Node Connection,PERIMETER_MID_ZN_4 ZN VAV TERMINAL DAMPER OUTLET,AIRTERMINAL:SINGLEDUCT:VAV:REHEAT,PERIMETER_MID_ZN_4 ZN VAV TERMINAL,Outlet,1
 Non-Parent Node Connection,NODE 65,AIRTERMINAL:SINGLEDUCT:VAV:REHEAT,PERIMETER_MID_ZN_4 ZN VAV TERMINAL,Inlet,1
 Non-Parent Node Connection,PERIMETER_TOP_ZN_1 ZN VAV TERMINAL DAMPER OUTLET,AIRTERMINAL:SINGLEDUCT:VAV:REHEAT,PERIMETER_TOP_ZN_1 ZN VAV TERMINAL,Outlet,1
 Non-Parent Node Connection,NODE 80,AIRTERMINAL:SINGLEDUCT:VAV:REHEAT,PERIMETER_TOP_ZN_1 ZN VAV TERMINAL,Inlet,1
 Non-Parent Node Connection,PERIMETER_TOP_ZN_2 ZN VAV TERMINAL DAMPER OUTLET,AIRTERMINAL:SINGLEDUCT:VAV:REHEAT,PERIMETER_TOP_ZN_2 ZN VAV TERMINAL,Outlet,1
 Non-Parent Node Connection,NODE 84,AIRTERMINAL:SINGLEDUCT:VAV:REHEAT,PERIMETER_TOP_ZN_2 ZN VAV TERMINAL,Inlet,1
 Non-Parent Node Connection,PERIMETER_TOP_ZN_3 ZN VAV TERMINAL DAMPER OUTLET,AIRTERMINAL:SINGLEDUCT:VAV:REHEAT,PERIMETER_TOP_ZN_3 ZN VAV TERMINAL,Outlet,1
 Non-Parent Node Connection,NODE 87,AIRTERMINAL:SINGLEDUCT:VAV:REHEAT,PERIMETER_TOP_ZN_3 ZN VAV TERMINAL,Inlet,1
 Non-Parent Node Connection,PERIMETER_TOP_ZN_4 ZN VAV TERMINAL DAMPER OUTLET,AIRTERMINAL:SINGLEDUCT:VAV:REHEAT,PERIMETER_TOP_ZN_4 ZN VAV TERMINAL,Outlet,1
 Non-Parent Node Connection,NODE 90,AIRTERMINAL:SINGLEDUCT:VAV:REHEAT,PERIMETER_TOP_ZN_4 ZN VAV TERMINAL,Inlet,1
 Non-Parent Node Connection,CORE_BOTTOM ZN VAV TERMINAL DAMPER OUTLET,COIL:HEATING:ELECTRIC,CORE_BOTTOM ZN ELECTRIC REHEAT COIL,Inlet,1
 Non-Parent Node Connection,NODE 41,COIL:HEATING:ELECTRIC,CORE_BOTTOM ZN ELECTRIC REHEAT COIL,Outlet,1
 Non-Parent Node Connection,CORE_MID ZN VAV TERMINAL DAMPER OUTLET,COIL:HEATING:ELECTRIC,CORE_MID ZN ELECTRIC REHEAT COIL,Inlet,1
 Non-Parent Node Connection,NODE 66,COIL:HEATING:ELECTRIC,CORE_MID ZN ELECTRIC REHEAT COIL,Outlet,1
 Non-Parent Node Connection,CORE_TOP ZN VAV TERMINAL DAMPER OUTLET,COIL:HEATING:ELECTRIC,CORE_TOP ZN ELECTRIC REHEAT COIL,Inlet,1
 Non-Parent Node Connection,NODE 91,COIL:HEATING:ELECTRIC,CORE_TOP ZN ELECTRIC REHEAT COIL,Outlet,1
 Non-Parent Node Connection,PERIMETER_BOT_ZN_1 ZN VAV TERMINAL DAMPER OUTLET,COIL:HEATING:ELECTRIC,PERIMETER_BOT_ZN_1 ZN ELECTRIC REHEAT COIL,Inlet,1
 Non-Parent Node Connection,NODE 23,COIL:HEATING:ELECTRIC,PERIMETER_BOT_ZN_1 ZN ELECTRIC REHEAT COIL,Outlet,1
 Non-Parent Node Connection,PERIMETER_BOT_ZN_2 ZN VAV TERMINAL DAMPER OUTLET,COIL:HEATING:ELECTRIC,PERIMETER_BOT_ZN_2 ZN ELECTRIC REHEAT COIL,Inlet,1
 Non-Parent Node Connection,NODE 31,COIL:HEATING:ELECTRIC,PERIMETER_BOT_ZN_2 ZN ELECTRIC REHEAT COIL,Outlet,1
 Non-Parent Node Connection,PERIMETER_BOT_ZN_3 ZN VAV TERMINAL DAMPER OUTLET,COIL:HEATING:ELECTRIC,PERIMETER_BOT_ZN_3 ZN ELECTRIC REHEAT COIL,Inlet,1
 Non-Parent Node Connection,NODE 35,COIL:HEATING:ELECTRIC,PERIMETER_BOT_ZN_3 ZN ELECTRIC REHEAT COIL,Outlet,1
 Non-Parent Node Connection,PERIMETER_BOT_ZN_4 ZN VAV TERMINAL DAMPER OUTLET,COIL:HEATING:ELECTRIC,PERIMETER_BOT_ZN_4 ZN ELECTRIC REHEAT COIL,Inlet,1
 Non-Parent Node Connection,NODE 38,COIL:HEATING:ELECTRIC,PERIMETER_BOT_ZN_4 ZN ELECTRIC REHEAT COIL,Outlet,1
 Non-Parent Node Connection,PERIMETER_MID_ZN_1 ZN VAV TERMINAL DAMPER OUTLET,COIL:HEATING:ELECTRIC,PERIMETER_MID_ZN_1 ZN ELECTRIC REHEAT COIL,Inlet,1
 Non-Parent Node Connection,NODE 48,COIL:HEATING:ELECTRIC,PERIMETER_MID_ZN_1 ZN ELECTRIC REHEAT COIL,Outlet,1
 Non-Parent Node Connection,PERIMETER_MID_ZN_2 ZN VAV TERMINAL DAMPER OUTLET,COIL:HEATING:ELECTRIC,PERIMETER_MID_ZN_2 ZN ELECTRIC REHEAT COIL,Inlet,1
 Non-Parent Node Connection,NODE 56,COIL:HEATING:ELECTRIC,PERIMETER_MID_ZN_2 ZN ELECTRIC REHEAT COIL,Outlet,1
 Non-Parent Node Connection,PERIMETER_MID_ZN_3 ZN VAV TERMINAL DAMPER OUTLET,COIL:HEATING:ELECTRIC,PERIMETER_MID_ZN_3 ZN ELECTRIC REHEAT COIL,Inlet,1
 Non-Parent Node Connection,NODE 60,COIL:HEATING:ELECTRIC,PERIMETER_MID_ZN_3 ZN ELECTRIC REHEAT COIL,Outlet,1
 Non-Parent Node Connection,PERIMETER_MID_ZN_4 ZN VAV TERMINAL DAMPER OUTLET,COIL:HEATING:ELECTRIC,PERIMETER_MID_ZN_4 ZN ELECTRIC REHEAT COIL,Inlet,1
 Non-Parent Node Connection,NODE 63,COIL:HEATING:ELECTRIC,PERIMETER_MID_ZN_4 ZN ELECTRIC REHEAT COIL,Outlet,1
 Non-Parent Node Connection,PERIMETER_TOP_ZN_1 ZN VAV TERMINAL DAMPER OUTLET,COIL:HEATING:ELECTRIC,PERIMETER_TOP_ZN_1 ZN ELECTRIC REHEAT COIL,Inlet,1
 Non-Parent Node Connection,NODE 73,COIL:HEATING:ELECTRIC,PERIMETER_TOP_ZN_1 ZN ELECTRIC REHEAT COIL,Outlet,1
 Non-Parent Node Connection,PERIMETER_TOP_ZN_2 ZN VAV TERMINAL DAMPER OUTLET,COIL:HEATING:ELECTRIC,PERIMETER_TOP_ZN_2 ZN ELECTRIC REHEAT COIL,Inlet,1
 Non-Parent Node Connection,NODE 81,COIL:HEATING:ELECTRIC,PERIMETER_TOP_ZN_2 ZN ELECTRIC REHEAT COIL,Outlet,1
 Non-Parent Node Connection,PERIMETER_TOP_ZN_3 ZN VAV TERMINAL DAMPER OUTLET,COIL:HEATING:ELECTRIC,PERIMETER_TOP_ZN_3 ZN ELECTRIC REHEAT COIL,Inlet,1
 Non-Parent Node Connection,NODE 85,COIL:HEATING:ELECTRIC,PERIMETER_TOP_ZN_3 ZN ELECTRIC REHEAT COIL,Outlet,1
 Non-Parent Node Connection,PERIMETER_TOP_ZN_4 ZN VAV TERMINAL DAMPER OUTLET,COIL:HEATING:ELECTRIC,PERIMETER_TOP_ZN_4 ZN ELECTRIC REHEAT COIL,Inlet,1
 Non-Parent Node Connection,NODE 88,COIL:HEATING:ELECTRIC,PERIMETER_TOP_ZN_4 ZN ELECTRIC REHEAT COIL,Outlet,1
 Non-Parent Node Connection,NODE 25,COIL:HEATING:FUEL,5 ZONE PVAV MAIN GAS HTG COIL,Inlet,1
 Non-Parent Node Connection,NODE 24,COIL:HEATING:FUEL,5 ZONE PVAV MAIN GAS HTG COIL,Outlet,1
 Non-Parent Node Connection,NODE 24,COIL:HEATING:FUEL,5 ZONE PVAV MAIN GAS HTG COIL,Sensor,1
 Non-Parent Node Connection,NODE 50,COIL:HEATING:FUEL,5 ZONE PVAV 1 MAIN GAS HTG COIL,Inlet,1
 Non-Parent Node Connection,NODE 49,COIL:HEATING:FUEL,5 ZONE PVAV 1 MAIN GAS HTG COIL,Outlet,1
 Non-Parent Node Connection,NODE 49,COIL:HEATING:FUEL,5 ZONE PVAV 1 MAIN GAS HTG COIL,Sensor,1
 Non-Parent Node Connection,NODE 75,COIL:HEATING:FUEL,5 ZONE PVAV 2 MAIN GAS HTG COIL,Inlet,1
 Non-Parent Node Connection,NODE 74,COIL:HEATING:FUEL,5 ZONE PVAV 2 MAIN GAS HTG COIL,Outlet,1
 Non-Parent Node Connection,NODE 74,COIL:HEATING:FUEL,5 ZONE PVAV 2 MAIN GAS HTG COIL,Sensor,1
 Non-Parent Node Connection,NODE 4,AIRLOOPHVAC:RETURNPLENUM,AIR LOOP HVAC RETURN PLENUM 1,ZoneNode,1
 Non-Parent Node Connection,NODE 32,AIRLOOPHVAC:RETURNPLENUM,AIR LOOP HVAC RETURN PLENUM 1,Outlet,1
 Non-Parent Node Connection,NODE 29,AIRLOOPHVAC:RETURNPLENUM,AIR LOOP HVAC RETURN PLENUM 1,Inlet,1
 Non-Parent Node Connection,NODE 33,AIRLOOPHVAC:RETURNPLENUM,AIR LOOP HVAC RETURN PLENUM 1,Inlet,1
 Non-Parent Node Connection,NODE 36,AIRLOOPHVAC:RETURNPLENUM,AIR LOOP HVAC RETURN PLENUM 1,Inlet,1
 Non-Parent Node Connection,NODE 39,AIRLOOPHVAC:RETURNPLENUM,AIR LOOP HVAC RETURN PLENUM 1,Inlet,1
 Non-Parent Node Connection,NODE 42,AIRLOOPHVAC:RETURNPLENUM,AIR LOOP HVAC RETURN PLENUM 1,Inlet,1
 Non-Parent Node Connection,NODE 5,AIRLOOPHVAC:RETURNPLENUM,AIR LOOP HVAC RETURN PLENUM 2,ZoneNode,1
 Non-Parent Node Connection,NODE 57,AIRLOOPHVAC:RETURNPLENUM,AIR LOOP HVAC RETURN PLENUM 2,Outlet,1
 Non-Parent Node Connection,NODE 54,AIRLOOPHVAC:RETURNPLENUM,AIR LOOP HVAC RETURN PLENUM 2,Inlet,1
 Non-Parent Node Connection,NODE 58,AIRLOOPHVAC:RETURNPLENUM,AIR LOOP HVAC RETURN PLENUM 2,Inlet,1
 Non-Parent Node Connection,NODE 61,AIRLOOPHVAC:RETURNPLENUM,AIR LOOP HVAC RETURN PLENUM 2,Inlet,1
 Non-Parent Node Connection,NODE 64,AIRLOOPHVAC:RETURNPLENUM,AIR LOOP HVAC RETURN PLENUM 2,Inlet,1
 Non-Parent Node Connection,NODE 67,AIRLOOPHVAC:RETURNPLENUM,AIR LOOP HVAC RETURN PLENUM 2,Inlet,1
 Non-Parent Node Connection,NODE 18,AIRLOOPHVAC:RETURNPLENUM,AIR LOOP HVAC RETURN PLENUM 3,ZoneNode,1
 Non-Parent Node Connection,NODE 82,AIRLOOPHVAC:RETURNPLENUM,AIR LOOP HVAC RETURN PLENUM 3,Outlet,1
 Non-Parent Node Connection,NODE 79,AIRLOOPHVAC:RETURNPLENUM,AIR LOOP HVAC RETURN PLENUM 3,Inlet,1
 Non-Parent Node Connection,NODE 83,AIRLOOPHVAC:RETURNPLENUM,AIR LOOP HVAC RETURN PLENUM 3,Inlet,1
 Non-Parent Node Connection,NODE 86,AIRLOOPHVAC:RETURNPLENUM,AIR LOOP HVAC RETURN PLENUM 3,Inlet,1
 Non-Parent Node Connection,NODE 89,AIRLOOPHVAC:RETURNPLENUM,AIR LOOP HVAC RETURN PLENUM 3,Inlet,1
 Non-Parent Node Connection,NODE 92,AIRLOOPHVAC:RETURNPLENUM,AIR LOOP HVAC RETURN PLENUM 3,Inlet,1
 Non-Parent Node Connection,NODE 22,AIRLOOPHVAC:ZONEMIXER,AIR LOOP HVAC ZONE MIXER 1,Outlet,1
 Non-Parent Node Connection,NODE 32,AIRLOOPHVAC:ZONEMIXER,AIR LOOP HVAC ZONE MIXER 1,Inlet,1
 Non-Parent Node Connection,NODE 47,AIRLOOPHVAC:ZONEMIXER,AIR LOOP HVAC ZONE MIXER 2,Outlet,1
 Non-Parent Node Connection,NODE 57,AIRLOOPHVAC:ZONEMIXER,AIR LOOP HVAC ZONE MIXER 2,Inlet,1
 Non-Parent Node Connection,NODE 72,AIRLOOPHVAC:ZONEMIXER,AIR LOOP HVAC ZONE MIXER 3,Outlet,1
 Non-Parent Node Connection,NODE 82,AIRLOOPHVAC:ZONEMIXER,AIR LOOP HVAC ZONE MIXER 3,Inlet,1
 Non-Parent Node Connection,NODE 28,OUTDOORAIR:MIXER,5 ZONE PVAV OA SYSTEM OUTDOOR AIR MIXER,Outlet,1
 Non-Parent Node Connection,NODE 26,OUTDOORAIR:MIXER,5 ZONE PVAV OA SYSTEM OUTDOOR AIR MIXER,Inlet,1
 Non-Parent Node Connection,NODE 27,OUTDOORAIR:MIXER,5 ZONE PVAV OA SYSTEM OUTDOOR AIR MIXER,ReliefAir,1
 Non-Parent Node Connection,NODE 19,OUTDOORAIR:MIXER,5 ZONE PVAV OA SYSTEM OUTDOOR AIR MIXER,Inlet,1
 Non-Parent Node Connection,NODE 53,OUTDOORAIR:MIXER,5 ZONE PVAV 1 OA SYSTEM OUTDOOR AIR MIXER,Outlet,1
 Non-Parent Node Connection,NODE 51,OUTDOORAIR:MIXER,5 ZONE PVAV 1 OA SYSTEM OUTDOOR AIR MIXER,Inlet,1
 Non-Parent Node Connection,NODE 52,OUTDOORAIR:MIXER,5 ZONE PVAV 1 OA SYSTEM OUTDOOR AIR MIXER,ReliefAir,1
 Non-Parent Node Connection,NODE 44,OUTDOORAIR:MIXER,5 ZONE PVAV 1 OA SYSTEM OUTDOOR AIR MIXER,Inlet,1
 Non-Parent Node Connection,NODE 78,OUTDOORAIR:MIXER,5 ZONE PVAV 2 OA SYSTEM OUTDOOR AIR MIXER,Outlet,1
 Non-Parent Node Connection,NODE 76,OUTDOORAIR:MIXER,5 ZONE PVAV 2 OA SYSTEM OUTDOOR AIR MIXER,Inlet,1
 Non-Parent Node Connection,NODE 77,OUTDOORAIR:MIXER,5 ZONE PVAV 2 OA SYSTEM OUTDOOR AIR MIXER,ReliefAir,1
 Non-Parent Node Connection,NODE 69,OUTDOORAIR:MIXER,5 ZONE PVAV 2 OA SYSTEM OUTDOOR AIR MIXER,Inlet,1
 Non-Parent Node Connection,NODE 24,FAN:VARIABLEVOLUME,5 ZONE PVAV FAN,Inlet,1
 Non-Parent Node Connection,NODE 20,FAN:VARIABLEVOLUME,5 ZONE PVAV FAN,Outlet,1
 Non-Parent Node Connection,NODE 49,FAN:VARIABLEVOLUME,5 ZONE PVAV 1 FAN,Inlet,1
 Non-Parent Node Connection,NODE 45,FAN:VARIABLEVOLUME,5 ZONE PVAV 1 FAN,Outlet,1
 Non-Parent Node Connection,NODE 74,FAN:VARIABLEVOLUME,5 ZONE PVAV 2 FAN,Inlet,1
 Non-Parent Node Connection,NODE 70,FAN:VARIABLEVOLUME,5 ZONE PVAV 2 FAN,Outlet,1
 Non-Parent Node Connection,NODE 28,CONTROLLER:OUTDOORAIR,CONTROLLER OUTDOOR AIR 1,Sensor,1
 Non-Parent Node Connection,NODE 26,CONTROLLER:OUTDOORAIR,CONTROLLER OUTDOOR AIR 1,Actuator,1
 Non-Parent Node Connection,NODE 27,CONTROLLER:OUTDOORAIR,CONTROLLER OUTDOOR AIR 1,Actuator,1
 Non-Parent Node Connection,NODE 19,CONTROLLER:OUTDOORAIR,CONTROLLER OUTDOOR AIR 1,Sensor,1
 Non-Parent Node Connection,NODE 53,CONTROLLER:OUTDOORAIR,CONTROLLER OUTDOOR AIR 2,Sensor,1
 Non-Parent Node Connection,NODE 51,CONTROLLER:OUTDOORAIR,CONTROLLER OUTDOOR AIR 2,Actuator,1
 Non-Parent Node Connection,NODE 52,CONTROLLER:OUTDOORAIR,CONTROLLER OUTDOOR AIR 2,Actuator,1
 Non-Parent Node Connection,NODE 44,CONTROLLER:OUTDOORAIR,CONTROLLER OUTDOOR AIR 2,Sensor,1
 Non-Parent Node Connection,NODE 78,CONTROLLER:OUTDOORAIR,CONTROLLER OUTDOOR AIR 3,Sensor,1
 Non-Parent Node Connection,NODE 76,CONTROLLER:OUTDOORAIR,CONTROLLER OUTDOOR AIR 3,Actuator,1
 Non-Parent Node Connection,NODE 77,CONTROLLER:OUTDOORAIR,CONTROLLER OUTDOOR AIR 3,Actuator,1
 Non-Parent Node Connection,NODE 69,CONTROLLER:OUTDOORAIR,CONTROLLER OUTDOOR AIR 3,Sensor,1
 Non-Parent Node Connection,NODE 28,COIL:COOLING:DX:TWOSPEED,5 ZONE PVAV 2SPD DX CLG COIL,Inlet,1
 Non-Parent Node Connection,NODE 25,COIL:COOLING:DX:TWOSPEED,5 ZONE PVAV 2SPD DX CLG COIL,Outlet,1
 Non-Parent Node Connection,NODE 53,COIL:COOLING:DX:TWOSPEED,5 ZONE PVAV 1 2SPD DX CLG COIL,Inlet,1
 Non-Parent Node Connection,NODE 50,COIL:COOLING:DX:TWOSPEED,5 ZONE PVAV 1 2SPD DX CLG COIL,Outlet,1
 Non-Parent Node Connection,NODE 78,COIL:COOLING:DX:TWOSPEED,5 ZONE PVAV 2 2SPD DX CLG COIL,Inlet,1
 Non-Parent Node Connection,NODE 75,COIL:COOLING:DX:TWOSPEED,5 ZONE PVAV 2 2SPD DX CLG COIL,Outlet,1
 Non-Parent Node Connection,NODE 94,PUMP:CONSTANTSPEED,MAIN SERVICE WATER LOOP CIRCULATOR PUMP,Inlet,1
 Non-Parent Node Connection,NODE 100,PUMP:CONSTANTSPEED,MAIN SERVICE WATER LOOP CIRCULATOR PUMP,Outlet,1
